94

C      -0.398053000000000      2.965071000000000      3.180099000000000
C       3.649343000000000      0.754743000000000      2.664193000000000
C      -1.453459000000000     -1.146530000000000     -3.585996000000000
C       2.965011000000000     -2.054384000000000     -2.330505000000000
C      -0.832554000000000      1.701372000000000      3.682273000000000
C       3.145100000000000      2.168474000000000      2.515537000000000
C      -1.694741000000000     -2.344023000000000     -2.850657000000000
C       2.244703000000000     -1.112887000000000     -3.268257000000000
C       0.168634000000000      0.697967000000000      4.013800000000000
C       3.285331000000000      2.874944000000000      1.355712000000000
C       2.512003000000000      0.218789000000000     -3.306370000000000
C      -0.619335000000000     -3.116108000000000     -2.318476000000000
C       1.549759000000000      1.039123000000000      3.813337000000000
C       0.681584000000000     -2.744299000000000     -2.731525000000000
C       1.957767000000000      2.331219000000000      3.304755000000000
C       0.921593000000000     -1.590809000000000     -3.530125000000000
C       0.997354000000000      3.268129000000000      2.984969000000000
C      -0.137102000000000     -0.709218000000000     -3.884525000000000
C       1.133369000000000      4.021298000000000      1.762933000000000
C       0.137102000000000      0.709219000000000     -3.884525000000000
C      -0.165782000000000      4.187963000000000      1.189697000000000
C      -0.921593000000000      1.590809000000000     -3.530125000000000
C      -1.118360000000000      3.640840000000000      2.149411000000000
C      -2.244703000000000      1.112887000000000     -3.268257000000000
C      -2.351740000000000      3.159544000000000      1.738237000000000
C      -2.512003000000000     -0.218789000000000     -3.306370000000000
C      -2.873634000000000      2.008798000000000      2.315560000000000
C      -3.574551000000000     -0.872414000000000     -2.438104000000000
C      -2.162165000000000      1.269511000000000      3.305660000000000
C      -2.933684000000000     -2.215256000000000     -2.156380000000000
C      -2.498343000000000     -0.089700000000000      3.433090000000000
C      -3.116023000000000     -2.883618000000000     -0.990040000000000
C      -1.549760000000000     -1.039123000000000      3.813337000000000
C      -2.076645000000000     -3.711461000000000     -0.456856000000000
C      -0.168634000000000     -0.697967000000000      4.013800000000000
C      -0.783908000000000     -3.789697000000000     -1.054167000000000
C       0.832554000000000     -1.701372000000000      3.682273000000000
C       0.378468000000000     -4.013637000000000     -0.201800000000000
C       2.162165000000000     -1.269511000000000      3.305660000000000
C       3.621163000000000     -1.288092000000000      1.280815000000000
C       3.511107000000000     -1.986735000000000      0.071482000000000
C       1.685104000000000     -3.551770000000000     -0.658660000000000
C       2.498343000000000      0.089700000000000      3.433090000000000
C       3.845551000000000      0.086993000000000      1.313528000000000
C       3.536776000000000     -1.308497000000000     -1.135148000000000
C       1.816799000000000     -2.981104000000000     -1.896741000000000
C       3.938807000000000      0.788336000000000      0.091437000000000
C       3.765295000000000      0.094000000000000     -1.134825000000000
C       3.984426000000000      2.322815000000000      0.121931000000000
C       3.574550000000000      0.872415000000000     -2.438104000000000
C       3.116023000000000      2.883618000000000     -0.990040000000000
C       2.933684000000000      2.215256000000000     -2.156380000000000
C       2.245426000000000      3.785504000000000      0.955490000000000
C       1.453459000000000      1.146530000000000     -3.585996000000000
C       2.076645000000000      3.711461000000000     -0.456856000000000
C       1.694741000000000      2.344023000000000     -2.850657000000000
C      -0.378468000000000      4.013637000000000     -0.201800000000000
C      -0.681584000000000      2.744299000000000     -2.731524000000000
C      -1.685104000000000      3.551770000000000     -0.658660000000000
C      -1.816799000000000      2.981104000000000     -1.896741000000000
C      -2.831124000000000      3.336100000000000      0.313931000000000
C      -2.965011000000000      2.054385000000000     -2.330504000000000
C      -3.511106000000000      1.986735000000000      0.071483000000000
C      -3.536776000000000      1.308497000000000     -1.135148000000000
C      -3.621163000000000      1.288092000000000      1.280815000000000
C      -3.765295000000000     -0.094000000000000     -1.134825000000000
C      -3.845551000000000     -0.086993000000000      1.313528000000000
C      -3.938807000000000     -0.788336000000000      0.091437000000000
C      -3.649342000000000     -0.754743000000000      2.664193000000000
C      -3.984426000000000     -2.322815000000000      0.121930000000000
C      -3.145100000000000     -2.168474000000000      2.515537000000000
C      -3.285331000000000     -2.874944000000000      1.355712000000000
C      -1.957767000000000     -2.331220000000000      3.304755000000000
C      -2.245426000000000     -3.785505000000000      0.955489000000000
C      -0.997354000000000     -3.268130000000000      2.984969000000000
C      -1.133370000000000     -4.021298000000000      1.762933000000000
C       0.398053000000000     -2.965071000000000      3.180099000000000
C       0.165782000000000     -4.187963000000000      1.189697000000000
C       2.873634000000000     -2.008798000000000      2.315561000000000
C       2.831125000000000     -3.336101000000000      0.313931000000000
C       1.118360000000000     -3.640840000000000      2.149411000000000
C       2.351740000000000     -3.159544000000000      1.738236000000000
C       0.783908000000000      3.789697000000000     -1.054166000000000
C       0.619335000000000      3.116108000000000     -2.318475000000000
Cl      4.284447000000000     -3.000331000000000     -3.202987000000000
Cl      4.039493000000000     -4.737293000000000      0.196866000000000
Cl      5.178070000000000      1.027289000000000     -3.337408000000000
Cl      5.733257000000000      2.892923000000000      0.015723000000000
Cl     -5.178071000000000     -1.027288000000000     -3.337408000000000
Cl     -4.284447000000000      3.000331000000000     -3.202986000000000
Cl     -4.039492000000000      4.737293000000000      0.196866000000000
Cl     -5.733257000000000     -2.892923000000000      0.015723000000000
Cl      5.229296000000000      0.678157000000000      3.635317000000000
Cl     -5.229296000000000     -0.678158000000000      3.635316000000000
