96

C       0.287641000000000     -2.984155000000000     -3.165116000000000
C      -3.679853000000000     -2.274246000000000     -0.581165000000000
C       1.504820000000000      4.002643000000000      1.077035000000000
C      -2.827988000000000      2.735197000000000      2.180505000000000
C       0.758637000000000     -3.217381000000000     -1.726899000000000
C      -3.232853000000000     -2.120148000000000     -2.015501000000000
C       1.803474000000000      3.248797000000000      2.287283000000000
C      -2.167779000000000      3.706870000000000      1.221776000000000
C      -0.196328000000000     -3.528579000000000     -0.692027000000000
C      -3.420659000000000     -0.962103000000000     -2.719953000000000
C      -2.499013000000000      3.729170000000000     -0.120548000000000
C       0.778237000000000      2.722120000000000      3.110284000000000
C      -1.587132000000000     -3.393343000000000     -0.962452000000000
C      -0.557973000000000      3.128074000000000      2.792113000000000
C      -2.071238000000000     -2.917190000000000     -2.250588000000000
C      -0.853394000000000      3.965520000000000      1.630399000000000
C      -1.178331000000000     -2.613911000000000     -3.249113000000000
C       0.168074000000000      4.305495000000000      0.700803000000000
C      -1.338007000000000     -1.384474000000000     -3.938029000000000
C      -0.168074000000000      4.305495000000000     -0.700804000000000
C      -0.034926000000000     -0.797477000000000     -4.152701000000000
C       0.853394000000000      3.965520000000000     -1.630400000000000
C       0.942600000000000     -1.739919000000000     -3.746951000000000
C       2.167779000000000      3.706870000000000     -1.221776000000000
C       2.169061000000000     -1.300451000000000     -3.313799000000000
C       2.499013000000000      3.729170000000000      0.120547000000000
C       2.969509000000000     -2.052444000000000     -2.272207000000000
C       3.584443000000000      2.840696000000000      0.714144000000000
C       2.069016000000000     -2.878709000000000     -1.371558000000000
C       3.020199000000000      2.562559000000000      2.091909000000000
C       2.480151000000000     -3.015865000000000     -0.034410000000000
C       3.244305000000000      1.383445000000000      2.749846000000000
C       1.587132000000000     -3.393343000000000      0.962453000000000
C       2.264508000000000      0.857005000000000      3.626070000000000
C       0.196328000000000     -3.528579000000000      0.692027000000000
C       0.979138000000000      1.460957000000000      3.774865000000000
C      -0.758636000000000     -3.217381000000000      1.726899000000000
C      -0.172945000000000      0.608530000000000      4.049787000000000
C      -2.069016000000000     -2.878709000000000      1.371558000000000
C      -3.560627000000000     -0.895897000000000      1.464460000000000
C      -3.316284000000000      0.315182000000000      2.122345000000000
C      -1.494341000000000      1.048629000000000      3.653155000000000
C      -2.480151000000000     -3.015865000000000      0.034410000000000
C      -3.835978000000000     -0.924622000000000      0.104164000000000
C      -3.386590000000000      1.532424000000000      1.445104000000000
C      -1.656677000000000      2.341242000000000      3.084836000000000
C      -3.936114000000000      0.301296000000000     -0.605445000000000
C      -3.708664000000000      1.529784000000000      0.071048000000000
C      -4.081722000000000      0.273667000000000     -2.131174000000000
C      -3.584443000000000      2.840695000000000     -0.714145000000000
C      -3.244305000000000      1.383444000000000     -2.749846000000000
C      -3.020199000000000      2.562559000000000     -2.091910000000000
C      -2.433102000000000     -0.570893000000000     -3.672764000000000
C      -1.504820000000000      4.002642000000000     -1.077036000000000
C      -2.264508000000000      0.857005000000000     -3.626070000000000
C      -1.803474000000000      3.248796000000000     -2.287284000000000
C       0.172945000000000      0.608530000000000     -4.049787000000000
C       0.557973000000000      3.128074000000000     -2.792113000000000
C       1.494340000000000      1.048628000000000     -3.653156000000000
C       1.656677000000000      2.341241000000000     -3.084836000000000
C       2.449984000000000      0.073601000000000     -3.278391000000000
C       2.827988000000000      2.735197000000000     -2.180506000000000
C       3.316284000000000      0.315182000000000     -2.122345000000000
C       3.386590000000000      1.532423000000000     -1.445104000000000
C       3.560628000000000     -0.895898000000000     -1.464460000000000
C       3.708664000000000      1.529784000000000     -0.071049000000000
C       3.835978000000000     -0.924622000000000     -0.104164000000000
C       3.936114000000000      0.301296000000000      0.605445000000000
C       3.679853000000000     -2.274246000000000      0.581166000000000
C       4.081722000000000      0.273668000000000      2.131174000000000
C       3.232853000000000     -2.120147000000000      2.015502000000000
C       3.420659000000000     -0.962102000000000      2.719953000000000
C       2.071238000000000     -2.917189000000000      2.250589000000000
C       2.433102000000000     -0.570892000000000      3.672765000000000
C       1.178331000000000     -2.613910000000000      3.249113000000000
C       1.338007000000000     -1.384473000000000      3.938029000000000
C      -0.287641000000000     -2.984155000000000      3.165116000000000
C       0.034926000000000     -0.797476000000000      4.152701000000000
C      -2.969509000000000     -2.052444000000000      2.272207000000000
C      -2.449984000000000      0.073602000000000      3.278392000000000
C      -0.942600000000000     -1.739918000000000      3.746951000000000
C      -2.169061000000000     -1.300451000000000      3.313799000000000
C      -0.979138000000000      1.460957000000000     -3.774866000000000
C      -0.778237000000000      2.722119000000000     -3.110284000000000
Cl      4.265332000000000     -3.098899000000000     -3.053562000000000
Cl      0.641437000000000     -4.507772000000000     -4.167848000000000
Cl      5.243576000000000     -3.241600000000000      0.472905000000000
Cl      5.861263000000000      0.384767000000000      2.596334000000000
Cl      5.209510000000000      3.699715000000000      0.764951000000000
Cl     -5.243576000000000     -3.241600000000000     -0.472904000000000
Cl     -5.861263000000000      0.384766000000000     -2.596334000000000
Cl     -5.209510000000000      3.699714000000000     -0.764951000000000
Cl     -4.265332000000000     -3.098898000000000      3.053563000000000
Cl     -0.641437000000000     -4.507771000000000      4.167849000000000
Cl     -4.174781000000000      3.551638000000000      3.153887000000000
Cl      4.174781000000000      3.551637000000000     -3.153888000000000
