98

C       1.700895000000000      3.282462000000000     -2.222811000000000
C      -2.963747000000000      2.322724000000000     -2.463772000000000
C       0.243788000000000     -2.476241000000000      3.492262000000000
C      -3.955785000000000     -1.567683000000000      1.697498000000000
C       1.670271000000000      1.881115000000000     -2.830543000000000
C      -2.074806000000000      3.418652000000000     -1.924287000000000
C       0.221272000000000     -3.507337000000000      2.462757000000000
C      -3.152266000000000     -1.159979000000000      2.916076000000000
C       0.489848000000000      1.385771000000000     -3.470295000000000
C      -2.172754000000000      3.869389000000000     -0.632122000000000
C      -2.998470000000000      0.167212000000000      3.274909000000000
C      -0.938454000000000     -3.730342000000000      1.664637000000000
C      -0.740703000000000      2.123190000000000     -3.332133000000000
C      -2.111339000000000     -3.044788000000000      2.058576000000000
C      -0.801875000000000      3.342808000000000     -2.543383000000000
C      -2.121584000000000     -2.078538000000000      3.152555000000000
C       0.331524000000000      3.810814000000000     -1.906207000000000
C      -0.910437000000000     -1.702338000000000      3.795190000000000
C       0.238016000000000      4.276391000000000     -0.587062000000000
C      -0.733066000000000     -0.314915000000000      4.139593000000000
C       1.530039000000000      4.094941000000000      0.159862000000000
C       0.587332000000000      0.211983000000000      4.116930000000000
C       2.337883000000000      3.291872000000000     -0.843953000000000
C       1.701217000000000     -0.590197000000000      3.839940000000000
C       3.237251000000000      2.391356000000000     -0.474527000000000
C       1.536115000000000     -1.930522000000000      3.540009000000000
C       3.708734000000000      1.297486000000000     -1.398405000000000
C       2.464800000000000     -2.676703000000000      2.591289000000000
C       2.718243000000000      0.996352000000000     -2.509894000000000
C       1.506700000000000     -3.649567000000000      1.934654000000000
C       2.657106000000000     -0.323482000000000     -2.947104000000000
C       1.657596000000000     -4.072538000000000      0.628271000000000
C       1.527867000000000     -0.809131000000000     -3.625297000000000
C       0.541320000000000     -4.384473000000000     -0.162368000000000
C       0.375156000000000     -0.005375000000000     -3.816416000000000
C      -0.794554000000000     -4.121884000000000      0.287308000000000
C      -0.928137000000000     -0.663805000000000     -3.838784000000000
C      -1.818275000000000     -3.752961000000000     -0.660451000000000
C      -2.096672000000000      0.094323000000000     -3.480181000000000
C      -3.754157000000000      0.133984000000000     -1.640175000000000
C      -4.039582000000000     -0.806092000000000     -0.644761000000000
C      -2.937919000000000     -3.015136000000000     -0.224517000000000
C      -1.970402000000000      1.497062000000000     -3.291302000000000
C      -3.537210000000000      1.477791000000000     -1.338250000000000
C      -4.037730000000000     -0.434707000000000      0.691417000000000
C      -3.101548000000000     -2.715556000000000      1.136289000000000
C      -3.591924000000000      1.889729000000000      0.011182000000000
C      -3.825428000000000      0.928448000000000      1.031257000000000
C      -3.188560000000000      3.329280000000000      0.364563000000000
C      -3.648919000000000      1.306840000000000      2.502783000000000
C      -2.376399000000000      3.333207000000000      1.649648000000000
C      -2.601488000000000      2.395331000000000      2.637767000000000
C      -0.990983000000000      4.262935000000000      0.051620000000000
C      -1.791590000000000      0.592275000000000      3.854818000000000
C      -1.092011000000000      3.858896000000000      1.436966000000000
C      -1.530083000000000      1.957810000000000      3.422542000000000
C       1.341597000000000      3.343113000000000      1.473812000000000
C       0.844617000000000      1.549924000000000      3.591194000000000
C       2.325290000000000      2.427344000000000      1.876542000000000
C       2.088025000000000      1.571720000000000      2.963782000000000
C       3.486050000000000      2.048631000000000      0.972317000000000
C       2.799996000000000      0.234918000000000      3.201584000000000
C       3.594659000000000      0.535123000000000      0.876261000000000
C       3.224868000000000     -0.364668000000000      1.874477000000000
C       3.742297000000000      0.117754000000000     -0.440372000000000
C       3.037035000000000     -1.722582000000000      1.537562000000000
C       3.539367000000000     -1.213321000000000     -0.803769000000000
C       3.200252000000000     -2.152814000000000      0.192688000000000
C       3.412222000000000     -1.491497000000000     -2.292321000000000
C       2.819494000000000     -3.584780000000000     -0.221492000000000
C       2.476299000000000     -2.649326000000000     -2.550908000000000
C       2.203639000000000     -3.604084000000000     -1.609481000000000
C       1.448674000000000     -2.240173000000000     -3.444314000000000
C       0.897878000000000     -4.189088000000000     -1.554961000000000
C       0.205858000000000     -2.854872000000000     -3.421380000000000
C      -0.069921000000000     -3.883546000000000     -2.484596000000000
C      -0.986778000000000     -2.071476000000000     -3.633955000000000
C      -1.550549000000000     -3.908732000000000     -2.157762000000000
C      -3.135396000000000     -0.553876000000000     -2.775908000000000
C      -3.815195000000000     -2.223356000000000     -1.180966000000000
C      -2.044737000000000     -2.689157000000000     -2.922248000000000
C      -3.096774000000000     -1.924260000000000     -2.479213000000000
C       0.056637000000000      3.352910000000000      2.127554000000000
C      -0.199444000000000      2.415229000000000      3.187521000000000
Cl      3.833052000000000     -3.504521000000000      3.494484000000000
Cl      4.302260000000000     -4.666971000000000     -0.104072000000000
Cl     -5.408423000000000     -3.100741000000000     -1.463983000000000
Cl     -5.642060000000000     -2.134916000000000      2.168417000000000
Cl     -5.269300000000000      1.779976000000000      3.236203000000000
Cl     -4.690457000000000      4.384508000000000      0.458461000000000
Cl     -4.335754000000000      2.989341000000000     -3.508022000000000
Cl      5.064561000000000     -1.792354000000000     -3.042388000000000
Cl      5.373293000000000      1.692114000000000     -2.084181000000000
Cl      4.248732000000000      0.406393000000000      4.321830000000000
Cl      2.598137000000000      4.426222000000000     -3.385255000000000
Cl      5.050673000000000      2.804377000000000      1.590945000000000
Cl      2.339899000000000      5.739838000000000      0.505537000000000
Cl     -2.346995000000000     -5.480869000000000     -2.765324000000000
