98

C       0.823343000000000      2.587664000000000     -2.964934000000000
C      -3.486505000000000      0.900072000000000     -2.551770000000000
C       1.279005000000000     -1.600316000000000      3.778245000000000
C      -3.201075000000000     -1.955316000000000      2.453292000000000
C       1.101101000000000      1.299380000000000     -3.460940000000000
C      -2.773885000000000      2.217608000000000     -2.369313000000000
C       1.379225000000000     -2.821067000000000      3.042971000000000
C      -2.383903000000000     -1.104004000000000      3.397177000000000
C      -0.018621000000000      0.431920000000000     -3.818526000000000
C      -2.825398000000000      2.944350000000000     -1.210876000000000
C      -2.485773000000000      0.245081000000000      3.422761000000000
C       0.225376000000000     -3.456545000000000      2.505224000000000
C      -1.333501000000000      0.927517000000000     -3.663855000000000
C      -1.029108000000000     -2.921814000000000      2.899514000000000
C      -1.583376000000000      2.227779000000000     -3.142230000000000
C      -1.132470000000000     -1.749406000000000      3.687838000000000
C      -0.505160000000000      3.040928000000000     -2.771355000000000
C       0.022411000000000     -1.003653000000000      4.058233000000000
C      -0.597062000000000      3.845192000000000     -1.597926000000000
C      -0.069253000000000      0.437555000000000      4.055012000000000
C       0.783355000000000      4.080776000000000     -1.027051000000000
C       1.088387000000000      1.172188000000000      3.728176000000000
C       1.642178000000000      3.192613000000000     -1.921137000000000
C       2.346615000000000      0.544566000000000      3.483526000000000
C       2.786189000000000      2.636784000000000     -1.515779000000000
C       2.445156000000000     -0.811639000000000      3.513932000000000
C       3.374605000000000      1.456537000000000     -2.241590000000000
C       3.423167000000000     -1.581886000000000      2.643276000000000
C       2.373801000000000      0.707871000000000     -3.106045000000000
C       2.630319000000000     -2.839512000000000      2.355614000000000
C       2.534102000000000     -0.642947000000000     -3.228935000000000
C       2.739542000000000     -3.516450000000000      1.186821000000000
C       1.454040000000000     -1.498298000000000     -3.627680000000000
C       1.610579000000000     -4.216054000000000      0.646355000000000
C       0.140839000000000     -0.998426000000000     -3.825163000000000
C       0.317127000000000     -4.145812000000000      1.243231000000000
C      -0.989982000000000     -1.865165000000000     -3.516837000000000
C      -0.858497000000000     -4.228221000000000      0.386740000000000
C      -2.272548000000000     -1.276446000000000     -3.186631000000000
C      -3.739501000000000     -1.145911000000000     -1.180518000000000
C      -3.676480000000000     -1.838699000000000      0.024685000000000
C      -2.112116000000000     -3.620511000000000      0.821555000000000
C      -2.428099000000000      0.075808000000000     -3.306022000000000
C      -3.778159000000000      0.247387000000000     -1.211513000000000
C      -3.636961000000000     -1.155097000000000      1.236754000000000
C      -2.181476000000000     -3.028116000000000      2.051760000000000
C      -3.780662000000000      0.962499000000000      0.004093000000000
C      -3.703640000000000      0.252051000000000      1.229564000000000
C      -3.624087000000000      2.493715000000000     -0.013244000000000
C      -3.435525000000000      1.013935000000000      2.526142000000000
C      -2.743736000000000      2.969878000000000      1.115334000000000
C      -2.631353000000000      2.267538000000000      2.246526000000000
C      -1.720660000000000      3.764561000000000     -0.823795000000000
C      -1.323403000000000      1.047448000000000      3.719644000000000
C      -1.660085000000000      3.931159000000000      0.667490000000000
C      -1.401490000000000      2.255697000000000      3.006887000000000
C       0.874008000000000      3.625126000000000      0.427744000000000
C       1.002943000000000      2.350417000000000      2.909794000000000
C       2.108974000000000      3.044729000000000      0.870572000000000
C       2.166519000000000      2.455347000000000      2.116760000000000
C       3.244468000000000      2.712971000000000     -0.087691000000000
C       3.182598000000000      1.392465000000000      2.550194000000000
C       3.695094000000000      1.272162000000000      0.129330000000000
C       3.631183000000000      0.587230000000000      1.342273000000000
C       3.790095000000000      0.580399000000000     -1.072824000000000
C       3.702722000000000     -0.821230000000000      1.339204000000000
C       3.834052000000000     -0.812310000000000     -1.105444000000000
C       3.811027000000000     -1.526077000000000      0.110380000000000
C       3.580126000000000     -1.464321000000000     -2.457482000000000
C       3.673607000000000     -3.056451000000000      0.080173000000000
C       2.880575000000000     -2.792980000000000     -2.308137000000000
C       2.923258000000000     -3.517044000000000     -1.157642000000000
C       1.692776000000000     -2.802765000000000     -3.122566000000000
C       1.773996000000000     -4.297806000000000     -0.763761000000000
C       0.601761000000000     -3.615731000000000     -2.803981000000000
C       0.642254000000000     -4.381162000000000     -1.571446000000000
C      -0.718621000000000     -3.160145000000000     -3.024811000000000
C      -0.657635000000000     -4.392591000000000     -0.997404000000000
C      -3.299464000000000     -2.022702000000000     -2.343041000000000
C      -3.209686000000000     -3.272077000000000     -0.177137000000000
C      -1.552952000000000     -3.735739000000000     -1.959252000000000
C      -2.724764000000000     -3.195352000000000     -1.598110000000000
C      -0.280014000000000      3.563561000000000      1.219877000000000
C      -0.231352000000000      2.878857000000000      2.477732000000000
Cl     -5.030186000000000      1.110918000000000     -3.529928000000000
Cl     -5.307732000000000      3.266575000000000      0.012080000000000
Cl     -5.021599000000000      1.390680000000000      3.378770000000000
Cl     -4.736269000000000     -2.549222000000000     -3.397936000000000
Cl      5.001779000000000     -1.919302000000000      3.523906000000000
Cl      5.343588000000000     -3.825384000000000      0.197139000000000
Cl     -4.657972000000000     -2.694970000000000      3.301849000000000
Cl      5.152151000000000     -1.644755000000000     -3.399473000000000
Cl      4.835442000000000      1.992290000000000     -3.260939000000000
Cl      4.629712000000000      2.127506000000000      3.415574000000000
Cl      4.645014000000000      3.899156000000000      0.138694000000000
Cl     -4.621325000000000     -4.475356000000000     -0.010132000000000
Cl      1.291909000000000      5.847863000000000     -1.153751000000000
Cl     -2.066089000000000      5.678638000000000      1.180141000000000
