100

C      -0.293895000000000      4.959047000000000     -0.075705000000000
C       3.335438000000000      2.721471000000000      2.090955000000000
C      -0.956317000000000     -3.028017000000000     -2.087520000000000
C       2.943938000000000     -2.796878000000000      0.446431000000000
C      -0.992392000000000      4.122075000000000      1.000376000000000
C       3.135357000000000      3.613280000000000      0.889020000000000
C      -1.616345000000000     -3.619478000000000     -0.858228000000000
C       2.595180000000000     -2.827742000000000     -1.020711000000000
C      -0.264980000000000      3.656169000000000      2.141917000000000
C       3.597341000000000      3.270896000000000     -0.352521000000000
C       3.087600000000000     -1.941131000000000     -1.879586000000000
C      -0.700127000000000     -3.477138000000000      0.343903000000000
C       1.174543000000000      3.762106000000000      2.153402000000000
C       0.672480000000000     -3.517910000000000      0.106530000000000
C       1.899313000000000      4.322044000000000      1.019326000000000
C       1.319950000000000     -3.606221000000000     -1.262607000000000
C       1.209825000000000      4.780061000000000     -0.075674000000000
C       0.425472000000000     -2.950772000000000     -2.288679000000000
C       1.659027000000000      4.377698000000000     -1.361352000000000
C       0.939408000000000     -1.981954000000000     -3.174345000000000
C       0.509147000000000      4.080328000000000     -2.185615000000000
C       0.043870000000000     -1.104291000000000     -3.792987000000000
C      -0.651067000000000      4.450227000000000     -1.466849000000000
C      -1.340322000000000     -1.208869000000000     -3.606044000000000
C      -1.844004000000000      3.820619000000000     -1.726581000000000
C      -1.838410000000000     -2.156529000000000     -2.744834000000000
C      -2.897494000000000      3.626396000000000     -0.658884000000000
C      -3.133030000000000     -1.971236000000000     -1.993215000000000
C      -2.282081000000000      3.607339000000000      0.730799000000000
C      -2.835738000000000     -2.737893000000000     -0.726054000000000
C      -2.890651000000000      2.768882000000000      1.658963000000000
C      -3.307079000000000     -2.360195000000000      0.454200000000000
C      -2.206506000000000      2.351225000000000      2.809203000000000
C      -2.674554000000000     -2.799022000000000      1.761497000000000
C      -0.850223000000000      2.690816000000000      3.034375000000000
C      -1.166814000000000     -3.021015000000000      1.591336000000000
C      -0.011207000000000      1.742341000000000      3.762467000000000
C      -0.245109000000000     -2.575861000000000      2.572054000000000
C       1.409608000000000      1.766308000000000      3.550263000000000
C       3.145371000000000      0.299828000000000      2.553307000000000
C       3.099746000000000     -1.048872000000000      2.185750000000000
C       1.138254000000000     -2.578436000000000      2.288787000000000
C       1.968869000000000      2.823856000000000      2.779703000000000
C       3.611304000000000      1.282577000000000      1.680005000000000
C       3.445206000000000     -1.437212000000000      0.897984000000000
C       1.577812000000000     -3.067976000000000      1.061468000000000
C       4.028245000000000      0.895631000000000      0.388944000000000
C       3.923846000000000     -0.465208000000000     -0.008235000000000
C       4.356337000000000      1.981627000000000     -0.640898000000000
C       4.074844000000000     -0.860811000000000     -1.476813000000000
C       3.774210000000000      1.590103000000000     -1.987505000000000
C       3.629602000000000      0.273207000000000     -2.360185000000000
C       2.821374000000000      3.633326000000000     -1.494770000000000
C       2.401124000000000     -1.603183000000000     -3.183788000000000
C       2.864012000000000      2.556352000000000     -2.453069000000000
C       2.612698000000000     -0.101986000000000     -3.239800000000000
C       0.513010000000000      2.994337000000000     -3.110215000000000
C       0.362348000000000      0.310596000000000     -4.026320000000000
C      -0.762388000000000      2.389027000000000     -3.415903000000000
C      -0.790377000000000      1.055216000000000     -3.922765000000000
C      -1.903241000000000      2.807554000000000     -2.695230000000000
C      -2.007483000000000      0.129736000000000     -3.805080000000000
C      -2.892345000000000      1.821561000000000     -2.241743000000000
C      -2.866647000000000      0.477115000000000     -2.606413000000000
C      -3.412747000000000      2.227655000000000     -1.008540000000000
C      -3.374527000000000     -0.485275000000000     -1.706851000000000
C      -3.878152000000000      1.291780000000000     -0.095070000000000
C      -3.878050000000000     -0.082067000000000     -0.448894000000000
C      -4.022910000000000      1.774336000000000      1.335285000000000
C      -4.192625000000000     -1.140942000000000      0.611335000000000
C      -3.735939000000000      0.663004000000000      2.317380000000000
C      -3.800075000000000     -0.670718000000000      1.987853000000000
C      -2.768088000000000      1.092295000000000      3.250924000000000
C      -2.954511000000000     -1.610107000000000      2.637082000000000
C      -1.956735000000000      0.173798000000000      3.896857000000000
C      -2.069210000000000     -1.206517000000000      3.607207000000000
C      -0.579815000000000      0.503198000000000      4.174493000000000
C      -0.738468000000000     -1.890005000000000      3.850973000000000
C       2.119672000000000      0.545787000000000      3.571927000000000
C       2.155333000000000     -1.813074000000000      3.115196000000000
C       0.158389000000000     -0.700802000000000      4.184077000000000
C       1.494482000000000     -0.675277000000000      3.860120000000000
C       1.730112000000000      2.203510000000000     -3.242785000000000
C       1.645043000000000      0.832409000000000     -3.671754000000000
Cl     -4.569114000000000     -2.670266000000000     -2.911843000000000
Cl     -5.986457000000000     -1.585008000000000      0.531732000000000
Cl      3.057767000000000     -2.944643000000000      4.247345000000000
Cl      4.164242000000000     -4.108164000000000      0.880156000000000
Cl      5.811766000000000     -1.382618000000000     -1.815908000000000
Cl      6.174249000000000      2.260179000000000     -0.697779000000000
Cl      4.695596000000000      3.327874000000000      3.189642000000000
Cl     -5.691367000000000      2.496777000000000      1.618796000000000
Cl     -4.214721000000000      4.904254000000000     -0.777381000000000
Cl     -0.819158000000000     -3.117166000000000      5.217504000000000
Cl     -3.451769000000000     -4.339576000000000      2.416142000000000
Cl     -2.082158000000000     -5.387757000000000     -1.110253000000000
Cl     -3.027873000000000      0.183308000000000     -5.344725000000000
Cl      1.680086000000000     -5.351607000000000     -1.739404000000000
Cl     -0.752200000000000      6.742816000000000      0.152463000000000
Cl      3.237207000000000     -2.439509000000000     -4.623448000000000
