86

C      -2.284696000000000     -3.134077000000000      0.833627000000000
C      -1.300614000000000     -0.042261000000000      3.905495000000000
C       1.895300000000000      2.478348000000000     -3.117803000000000
C       1.375038000000000      3.872244000000000      1.174475000000000
C      -0.958297000000000     -3.569259000000000      1.108323000000000
C      -2.537170000000000     -0.479313000000000      3.312875000000000
C       3.113967000000000      1.976446000000000     -2.568264000000000
C       0.747131000000000      4.239792000000000     -0.073297000000000
C      -0.302768000000000     -3.091331000000000      2.327871000000000
C      -3.267056000000000      0.394560000000000      2.526798000000000
C      -0.612521000000000      4.161998000000000     -0.195274000000000
C       3.543847000000000      2.305281000000000     -1.251752000000000
C      -1.041492000000000     -2.253042000000000      3.187228000000000
C       2.791301000000000      3.313752000000000     -0.604025000000000
C      -2.382414000000000     -1.843713000000000      2.890484000000000
C       1.614341000000000      3.865386000000000     -1.176191000000000
C      -2.989211000000000     -2.255930000000000      1.708700000000000
C       1.070995000000000      3.380466000000000     -2.399598000000000
C      -3.806425000000000     -1.355036000000000      0.938543000000000
C      -0.387513000000000      3.264256000000000     -2.524806000000000
C      -3.772520000000000     -1.745858000000000     -0.522160000000000
C      -0.917836000000000      2.227429000000000     -3.324839000000000
C      -2.738350000000000     -2.866325000000000     -0.501635000000000
C      -0.051698000000000      1.292421000000000     -4.010979000000000
C      -1.924655000000000     -3.109954000000000     -1.561111000000000
C       1.312617000000000      1.413798000000000     -3.923162000000000
C      -0.637620000000000     -3.711306000000000     -1.355062000000000
C       2.142621000000000      0.233769000000000     -3.822087000000000
C      -0.150601000000000     -3.949553000000000     -0.038194000000000
C       3.301442000000000      0.633900000000000     -3.082481000000000
C       1.246159000000000     -3.989527000000000      0.099964000000000
C       4.006164000000000     -0.285148000000000     -2.350327000000000
C       1.893325000000000     -3.598032000000000      1.343247000000000
C       4.570540000000000      0.073162000000000     -1.059054000000000
C       1.160860000000000     -3.021844000000000      2.402813000000000
C       4.255561000000000      1.307661000000000     -0.439593000000000
C       1.814339000000000     -1.979026000000000      3.202962000000000
C       4.124718000000000      1.333421000000000      1.020230000000000
C       0.990787000000000     -0.988293000000000      3.892159000000000
C       0.568867000000000      1.461910000000000      3.864146000000000
C       1.280779000000000      2.510234000000000      3.144915000000000
C       3.271688000000000      2.349054000000000      1.651236000000000
C      -0.404111000000000     -1.158901000000000      3.903058000000000
C      -0.822243000000000      1.289387000000000      3.720266000000000
C       0.602190000000000      3.380644000000000      2.267998000000000
C       2.651109000000000      3.327838000000000      0.849668000000000
C      -1.563429000000000      2.213542000000000      2.857212000000000
C      -0.850810000000000      3.255835000000000      2.131200000000000
C      -2.793792000000000      1.746313000000000      2.315025000000000
C      -1.424449000000000      3.724460000000000      0.923007000000000
C      -3.274675000000000      2.168172000000000      1.050245000000000
C      -2.582452000000000      3.116861000000000      0.355607000000000
C      -3.941670000000000     -0.059455000000000      1.339205000000000
C      -1.213603000000000      3.682772000000000     -1.436781000000000
C      -4.072534000000000      1.077472000000000      0.349154000000000
C      -2.407014000000000      3.006967000000000     -1.093466000000000
C      -3.328977000000000     -0.586359000000000     -1.429755000000000
C      -2.080488000000000      1.493643000000000     -2.920531000000000
C      -2.508899000000000     -0.919338000000000     -2.595193000000000
C      -1.925212000000000      0.121576000000000     -3.333990000000000
C      -1.833655000000000     -2.174090000000000     -2.669796000000000
C      -0.649580000000000     -0.017858000000000     -3.981475000000000
C      -0.525143000000000     -2.280469000000000     -3.195450000000000
C       0.139175000000000     -1.182828000000000     -3.810390000000000
C       0.219246000000000     -3.244050000000000     -2.393487000000000
C       1.590830000000000     -1.065369000000000     -3.681923000000000
C       1.612452000000000     -3.136714000000000     -2.214552000000000
C       2.337477000000000     -2.050427000000000     -2.889678000000000
C       2.119468000000000     -3.674714000000000     -0.990867000000000
C       3.574728000000000     -1.658360000000000     -2.324296000000000
C       3.356439000000000     -3.204499000000000     -0.428905000000000
C       4.066568000000000     -2.217031000000000     -1.081283000000000
C       3.222276000000000     -3.178731000000000      1.015837000000000
C       4.685670000000000     -1.145297000000000     -0.315927000000000
C       3.824747000000000     -2.168300000000000      1.751429000000000
C       4.568601000000000     -1.119429000000000      1.065527000000000
C       3.133529000000000     -1.590910000000000      2.857032000000000
C       4.326829000000000      0.123324000000000      1.732223000000000
C       1.451579000000000      0.352781000000000      4.026038000000000
C       2.602795000000000      2.050620000000000      2.874736000000000
C       3.542502000000000     -0.193392000000000      2.916524000000000
C       2.721032000000000      0.744345000000000      3.474812000000000
C      -3.470684000000000      0.733979000000000     -1.022406000000000
C      -2.811523000000000      1.813547000000000     -1.759012000000000
Cl     -5.414980000000000     -2.377225000000000     -1.115661000000000
Cl     -5.841454000000000      1.594395000000000      0.112943000000000
