88

C      -0.581996000000000     -4.187950000000000      1.062686000000000
C       2.656284000000000     -2.483916000000000     -1.781110000000000
C      -1.699949000000000      3.704537000000000      1.613391000000000
C       1.961271000000000      3.214121000000000     -1.206295000000000
C      -1.453600000000000     -3.956999000000000     -0.044734000000000
C       2.625686000000000     -3.123179000000000     -0.417489000000000
C      -2.409090000000000      3.725073000000000      0.349218000000000
C       1.735993000000000      3.517359000000000      0.257859000000000
C      -0.864916000000000     -3.672116000000000     -1.345499000000000
C       3.153578000000000     -2.518875000000000      0.687056000000000
C       2.386592000000000      2.824729000000000      1.244351000000000
C      -1.735328000000000      3.693716000000000     -0.886477000000000
C       0.571966000000000     -3.646126000000000     -1.434928000000000
C      -0.307624000000000      3.855033000000000     -0.812296000000000
C       1.427121000000000     -3.903509000000000     -0.292773000000000
C       0.401034000000000      3.945302000000000      0.461401000000000
C       0.857091000000000     -4.157910000000000      0.933658000000000
C      -0.275406000000000      3.753965000000000      1.687200000000000
C       1.411387000000000     -3.530903000000000      2.105841000000000
C       0.403672000000000      3.004049000000000      2.731972000000000
C       0.322952000000000     -3.149537000000000      2.962673000000000
C      -0.373690000000000      2.215929000000000      3.626733000000000
C      -0.889203000000000     -3.691034000000000      2.368620000000000
C      -1.803462000000000      2.158792000000000      3.499323000000000
C      -2.113064000000000     -3.095356000000000      2.620445000000000
C      -2.452258000000000      2.903388000000000      2.521050000000000
C      -3.095643000000000     -3.019383000000000      1.583510000000000
C      -3.601652000000000      2.354426000000000      1.825423000000000
C      -2.781741000000000     -3.445416000000000      0.259077000000000
C      -3.627457000000000      2.979642000000000      0.530768000000000
C      -3.521406000000000     -2.841573000000000     -0.773503000000000
C      -4.195413000000000      2.334696000000000     -0.537820000000000
C      -2.982040000000000     -2.679377000000000     -2.094563000000000
C      -3.598103000000000      2.412626000000000     -1.855654000000000
C      -1.608216000000000     -2.957759000000000     -2.359818000000000
C      -2.307518000000000      2.986238000000000     -2.027085000000000
C      -0.905826000000000     -2.107509000000000     -3.319741000000000
C      -1.414153000000000      2.405502000000000     -3.027296000000000
C       0.542934000000000     -1.973185000000000     -3.217504000000000
C       2.250958000000000     -0.233083000000000     -2.681301000000000
C       2.082570000000000      1.158656000000000     -2.550423000000000
C       0.039221000000000      2.556819000000000     -2.859668000000000
C       1.249508000000000     -2.801434000000000     -2.307895000000000
C       2.871163000000000     -0.982399000000000     -1.688408000000000
C       2.520102000000000      1.819177000000000     -1.407228000000000
C       0.541753000000000      3.339438000000000     -1.773151000000000
C       3.356811000000000     -0.322183000000000     -0.533421000000000
C       3.170398000000000      1.077825000000000     -0.391183000000000
C       3.847611000000000     -1.166193000000000      0.649560000000000
C       3.434700000000000      1.759755000000000      0.953666000000000
C       3.379784000000000     -0.552604000000000      1.957697000000000
C       3.190442000000000      0.786796000000000      2.087299000000000
C       2.510497000000000     -2.696211000000000      1.963494000000000
C       1.721089000000000      2.546909000000000      2.472901000000000
C       2.561194000000000     -1.466879000000000      2.694196000000000
C       2.181519000000000      1.273235000000000      2.964688000000000
C       0.306321000000000     -1.908815000000000      3.640264000000000
C       0.059156000000000      0.921191000000000      4.052597000000000
C      -1.006849000000000     -1.313315000000000      3.934454000000000
C      -1.095844000000000      0.071988000000000      4.176727000000000
C      -2.195393000000000     -1.935953000000000      3.449386000000000
C      -2.258855000000000      0.836353000000000      3.797487000000000
C      -3.305967000000000     -1.160160000000000      2.962462000000000
C      -3.325694000000000      0.247380000000000      3.056252000000000
C      -3.870282000000000     -1.838604000000000      1.822985000000000
C      -4.008642000000000      1.016835000000000      2.003648000000000
C      -4.501401000000000     -1.138006000000000      0.766330000000000
C      -4.617138000000000      0.319778000000000      0.857808000000000
C      -4.449533000000000     -1.761159000000000     -0.510067000000000
C      -4.780274000000000      1.029751000000000     -0.355883000000000
C      -4.556847000000000     -0.995834000000000     -1.716186000000000
C      -4.727894000000000      0.375215000000000     -1.645503000000000
C      -3.659779000000000     -1.572886000000000     -2.703449000000000
C      -4.001510000000000      1.237081000000000     -2.564288000000000
C      -2.990254000000000     -0.747256000000000     -3.590812000000000
C      -3.160959000000000      0.685852000000000     -3.523399000000000
C      -1.612401000000000     -1.028455000000000     -3.922005000000000
C      -1.877959000000000      1.293336000000000     -3.778209000000000
C       1.154274000000000     -0.742843000000000     -3.523895000000000
C       0.900946000000000      1.560271000000000     -3.335014000000000
C      -0.978109000000000      0.232713000000000     -4.174928000000000
C       0.387771000000000      0.374704000000000     -3.945177000000000
C       1.476196000000000     -1.036541000000000      3.508679000000000
C       1.326086000000000      0.393994000000000      3.684773000000000
Cl      3.956726000000000     -3.238117000000000     -2.878217000000000
Cl      5.684136000000000     -1.351715000000000      0.563613000000000
Cl      5.136576000000000      2.471997000000000      0.979543000000000
Cl      3.082339000000000      4.460746000000000     -2.008539000000000
