90

C       4.247891000000000      1.484423000000000     -1.719553000000000
C       1.653837000000000      4.187813000000000      0.739982000000000
C      -1.454668000000000     -3.203046000000000      1.485701000000000
C      -2.063399000000000      0.967841000000000      3.029510000000000
C       3.202010000000000      1.644665000000000     -2.674027000000000
C       3.014394000000000      3.772705000000000      0.879854000000000
C      -2.629198000000000     -2.943348000000000      0.533376000000000
C      -1.567173000000000     -0.194169000000000      3.634036000000000
C       2.252728000000000      2.745969000000000     -2.505303000000000
C       3.388908000000000      3.031557000000000      1.993495000000000
C      -0.290780000000000     -0.193484000000000      4.164883000000000
C      -3.078480000000000     -1.489941000000000      0.603482000000000
C       2.438991000000000      3.614152000000000     -1.388185000000000
C      -2.910150000000000     -0.852142000000000      1.820568000000000
C       3.507875000000000      3.418384000000000     -0.436647000000000
C      -2.201942000000000     -1.439643000000000      3.040480000000000
C       4.378273000000000      2.359642000000000     -0.591004000000000
C      -1.186444000000000     -2.487121000000000      2.632133000000000
C       4.781900000000000      1.570316000000000      0.567863000000000
C       0.172581000000000     -2.433148000000000      3.152496000000000
C       4.872910000000000      0.205392000000000      0.167123000000000
C       1.200310000000000     -3.096700000000000      2.432751000000000
C       4.671916000000000      0.181447000000000     -1.283265000000000
C       0.901791000000000     -3.795408000000000      1.210207000000000
C       4.191579000000000     -0.943668000000000     -1.908782000000000
C      -0.407208000000000     -3.839263000000000      0.748808000000000
C       3.253504000000000     -0.820269000000000     -2.938606000000000
C      -0.675922000000000     -3.747047000000000     -0.654228000000000
C       2.765572000000000      0.448179000000000     -3.364957000000000
C      -1.994943000000000     -3.230237000000000     -0.812338000000000
C       1.514377000000000      0.442000000000000     -4.012606000000000
C      -2.317572000000000     -2.530785000000000     -1.929519000000000
C       0.636800000000000      1.558310000000000     -3.936698000000000
C      -3.339926000000000     -1.403855000000000     -1.925770000000000
C       0.919827000000000      2.652920000000000     -3.068898000000000
C      -3.336793000000000     -0.710145000000000     -0.559584000000000
C      -0.209669000000000      3.291764000000000     -2.393499000000000
C      -3.375732000000000      0.703057000000000     -0.468075000000000
C       0.012507000000000      3.980387000000000     -1.143872000000000
C      -0.665426000000000      3.808294000000000      1.257771000000000
C      -1.637238000000000      3.037095000000000      1.879014000000000
C      -3.136548000000000      1.334124000000000      0.775167000000000
C       1.332915000000000      4.161907000000000     -0.681534000000000
C       0.689200000000000      3.855628000000000      1.718834000000000
C      -1.305505000000000      2.167056000000000      2.948487000000000
C      -2.902505000000000      0.548457000000000      1.899854000000000
C       1.056024000000000      3.055219000000000      2.876815000000000
C       0.048238000000000      2.183772000000000      3.480418000000000
C       2.430325000000000      2.699664000000000      3.005626000000000
C       0.487800000000000      1.006088000000000      4.145574000000000
C       2.813674000000000      1.411858000000000      3.536291000000000
C       1.867472000000000      0.593341000000000      4.089246000000000
C       4.290133000000000      1.895444000000000      1.827606000000000
C       0.597667000000000     -1.331405000000000      3.947102000000000
C       3.886182000000000      0.860829000000000      2.721538000000000
C       1.927693000000000     -0.834602000000000      3.874161000000000
C       4.376283000000000     -0.842175000000000      0.990386000000000
C       2.518662000000000     -2.562035000000000      2.316502000000000
C       3.888693000000000     -2.044359000000000      0.339968000000000
C       3.010440000000000     -2.878165000000000      0.990847000000000
C       4.006799000000000     -2.246232000000000     -1.165253000000000
C       1.980341000000000     -3.661537000000000      0.297222000000000
C       2.722531000000000     -2.781932000000000     -1.806819000000000
C       1.740348000000000     -3.507031000000000     -1.089276000000000
C       2.375471000000000     -1.987648000000000     -2.889614000000000
C       0.366007000000000     -3.502157000000000     -1.590749000000000
C       1.050320000000000     -1.949184000000000     -3.429451000000000
C       0.024635000000000     -2.744944000000000     -2.776962000000000
C       0.705046000000000     -0.770422000000000     -4.122042000000000
C      -1.331035000000000     -2.327212000000000     -2.940783000000000
C      -0.658987000000000     -0.363151000000000     -4.242874000000000
C      -1.663915000000000     -1.128599000000000     -3.649788000000000
C      -0.706805000000000      1.066520000000000     -4.132756000000000
C      -2.786637000000000     -0.499494000000000     -3.008443000000000
C      -1.765457000000000      1.650777000000000     -3.460206000000000
C      -2.836774000000000      0.861402000000000     -2.919484000000000
C      -1.524084000000000      2.778900000000000     -2.605606000000000
C      -3.444856000000000      1.574976000000000     -1.730391000000000
C      -1.003391000000000      3.959873000000000     -0.150819000000000
C      -2.806804000000000      2.806167000000000      0.916839000000000
C      -2.517879000000000      2.778179000000000     -1.588442000000000
C      -2.252611000000000      3.356704000000000     -0.376724000000000
C       3.873646000000000     -0.501133000000000      2.326811000000000
C       2.899866000000000     -1.378759000000000      2.972365000000000
Cl     -3.426259000000000     -2.166681000000000      4.234748000000000
Cl     -4.039164000000000     -4.077793000000000      0.888794000000000
Cl     -5.040315000000000     -2.000834000000000     -2.327106000000000
Cl     -5.193757000000000      2.075400000000000     -2.035491000000000
Cl     -4.305710000000000      3.738132000000000      1.482701000000000
Cl      5.430935000000000     -3.397966000000000     -1.501680000000000
