92

C       3.938971000000000     -2.578286000000000      1.385149000000000
C       0.411979000000000     -4.618138000000000     -0.494296000000000
C      -0.753133000000000      3.322077000000000     -1.381801000000000
C      -2.906999000000000     -0.614620000000000     -2.679762000000000
C       3.040100000000000     -2.427356000000000      2.472113000000000
C       1.804589000000000     -4.565213000000000     -0.841296000000000
C      -1.792467000000000      3.401472000000000     -0.262489000000000
C      -1.995873000000000      0.406840000000000     -3.312839000000000
C       1.828583000000000     -3.254471000000000      2.502764000000000
C       2.188603000000000     -3.994335000000000     -2.038708000000000
C      -0.850696000000000      0.029678000000000     -3.900065000000000
C      -2.586457000000000      2.104006000000000     -0.175466000000000
C       1.638664000000000     -4.179509000000000      1.455809000000000
C      -2.775853000000000      1.401954000000000     -1.363291000000000
C       2.565423000000000     -4.307725000000000      0.370578000000000
C      -2.170938000000000      1.778979000000000     -2.705627000000000
C       3.692317000000000     -3.502321000000000      0.325603000000000
C      -0.866148000000000      2.531788000000000     -2.503850000000000
C       4.104821000000000     -2.891032000000000     -0.932463000000000
C       0.339986000000000      2.099721000000000     -3.172419000000000
C       4.599730000000000     -1.589095000000000     -0.661229000000000
C       1.596356000000000      2.490724000000000     -2.634337000000000
C       4.620938000000000     -1.439404000000000      0.799910000000000
C       1.678027000000000      3.315101000000000     -1.488285000000000
C       4.543016000000000     -0.217015000000000      1.385880000000000
C       0.525523000000000      3.681084000000000     -0.850225000000000
C       3.752671000000000     -0.050935000000000      2.557449000000000
C       0.442710000000000      3.708370000000000      0.603823000000000
C       3.026765000000000     -1.134955000000000      3.130293000000000
C      -0.910264000000000      3.554886000000000      0.958553000000000
C       1.924679000000000     -0.784441000000000      3.935222000000000
C      -1.246537000000000      2.989485000000000      2.162162000000000
C       0.769591000000000     -1.656714000000000      4.050969000000000
C      -2.519921000000000      2.180515000000000      2.360459000000000
C       0.642258000000000     -2.796601000000000      3.233482000000000
C      -2.884986000000000      1.467331000000000      1.051313000000000
C      -0.697023000000000     -3.142587000000000      2.748532000000000
C      -3.321742000000000      0.118267000000000      1.060518000000000
C      -0.833751000000000     -3.908566000000000      1.529249000000000
C      -1.786372000000000     -3.671183000000000     -0.753354000000000
C      -2.624421000000000     -2.652947000000000     -1.317468000000000
C      -3.453250000000000     -0.586280000000000     -0.157478000000000
C       0.314916000000000     -4.446322000000000      0.921590000000000
C      -0.584529000000000     -4.081796000000000     -1.368088000000000
C      -2.251828000000000     -1.972449000000000     -2.444364000000000
C      -3.197777000000000      0.073859000000000     -1.353629000000000
C      -0.193118000000000     -3.436060000000000     -2.609574000000000
C      -1.022145000000000     -2.352289000000000     -3.127684000000000
C       1.192420000000000     -3.455795000000000     -2.943175000000000
C      -0.397905000000000     -1.364844000000000     -3.918228000000000
C       1.801897000000000     -2.349364000000000     -3.604470000000000
C       1.009446000000000     -1.323929000000000     -4.072795000000000
C       3.364571000000000     -3.137048000000000     -2.092601000000000
C       0.340450000000000      0.887402000000000     -3.904308000000000
C       3.095630000000000     -2.068429000000000     -2.988121000000000
C       1.471302000000000      0.053049000000000     -3.967203000000000
C       4.261806000000000     -0.481242000000000     -1.481645000000000
C       2.731579000000000      1.610228000000000     -2.645246000000000
C       4.221433000000000      0.845309000000000     -0.868608000000000
C       3.512244000000000      1.849014000000000     -1.467472000000000
C       4.608508000000000      1.060571000000000      0.586981000000000
C       2.971949000000000      3.090067000000000     -0.745268000000000
C       3.577555000000000      1.918502000000000      1.328726000000000
C       2.747876000000000      2.828175000000000      0.733196000000000
C       3.215712000000000      1.273357000000000      2.555416000000000
C       1.504279000000000      3.200713000000000      1.397588000000000
C       2.026888000000000      1.595778000000000      3.243968000000000
C       1.154170000000000      2.601795000000000      2.666428000000000
C       1.484050000000000      0.566443000000000      4.069008000000000
C      -0.224997000000000      2.564378000000000      3.034243000000000
C       0.079722000000000      0.537792000000000      4.386038000000000
C      -0.758888000000000      1.512044000000000      3.872560000000000
C      -0.353789000000000     -0.831036000000000      4.387936000000000
C      -2.085910000000000      1.194340000000000      3.425766000000000
C      -1.618189000000000     -1.135918000000000      3.893804000000000
C      -2.506621000000000     -0.104066000000000      3.434767000000000
C      -1.789779000000000     -2.301957000000000      3.090557000000000
C      -3.441745000000000     -0.659350000000000      2.380899000000000
C      -1.937435000000000     -3.652306000000000      0.665754000000000
C      -3.551060000000000     -2.101066000000000     -0.227534000000000
C      -2.891603000000000     -2.066901000000000      2.198367000000000
C      -2.954780000000000     -2.718456000000000      1.011844000000000
C       3.487717000000000     -0.732806000000000     -2.694542000000000
C       2.682197000000000      0.345804000000000     -3.254449000000000
Cl     -3.348863000000000      2.810599000000000     -3.708853000000000
Cl     -2.926639000000000      4.835645000000000     -0.491140000000000
Cl     -3.939314000000000      3.218914000000000      2.910848000000000
Cl     -5.198737000000000     -0.654438000000000      2.936621000000000
Cl     -5.295512000000000     -2.631505000000000     -0.492588000000000
Cl     -4.459336000000000     -0.829855000000000     -3.684907000000000
Cl      6.302699000000000      1.820603000000000      0.698061000000000
Cl      4.114282000000000      4.540483000000000     -0.977281000000000
