92

C      -2.433068000000000      3.767964000000000     -1.789691000000000
C      -3.416489000000000     -0.704967000000000     -2.526957000000000
C       2.378313000000000     -0.042561000000000      3.421893000000000
C      -0.106266000000000     -3.399678000000000      1.357943000000000
C      -1.301844000000000      3.489737000000000     -2.613474000000000
C      -4.092368000000000      0.471377000000000     -1.872341000000000
C       3.513382000000000     -0.460004000000000      2.491410000000000
C      -0.154097000000000     -2.608054000000000      2.646737000000000
C      -1.283902000000000      2.244348000000000     -3.371251000000000
C      -4.516384000000000      0.442196000000000     -0.575950000000000
C      -1.319049000000000     -1.994349000000000      3.071266000000000
C       3.032000000000000     -1.423266000000000      1.419891000000000
C      -2.412634000000000      1.367881000000000     -3.245877000000000
C       1.962994000000000     -2.250327000000000      1.766222000000000
C      -3.552073000000000      1.688105000000000     -2.414079000000000
C       1.089759000000000     -2.020161000000000      2.920062000000000
C      -3.554006000000000      2.861489000000000     -1.692008000000000
C       1.220222000000000     -0.821973000000000      3.670796000000000
C      -4.004478000000000      2.839171000000000     -0.324615000000000
C      -0.007047000000000     -0.152060000000000      4.078938000000000
C      -3.154470000000000      3.716604000000000      0.437622000000000
C      -0.019773000000000      1.260717000000000      4.184863000000000
C      -2.287351000000000      4.390360000000000     -0.507875000000000
C       1.146954000000000      2.016124000000000      3.871879000000000
C      -1.048029000000000      4.861248000000000     -0.100784000000000
C       2.311898000000000      1.357835000000000      3.477848000000000
C       0.070659000000000      4.771561000000000     -0.979168000000000
C       3.156005000000000      1.924716000000000      2.441771000000000
C      -0.038171000000000      4.095865000000000     -2.223381000000000
C       3.901037000000000      0.863544000000000      1.866001000000000
C       1.161091000000000      3.557912000000000     -2.746604000000000
C       4.317478000000000      0.954975000000000      0.574105000000000
C       1.157933000000000      2.404355000000000     -3.578882000000000
C       4.448446000000000     -0.261404000000000     -0.334117000000000
C      -0.035448000000000      1.651803000000000     -3.792524000000000
C       3.400213000000000     -1.314567000000000      0.058187000000000
C       0.083164000000000      0.204169000000000     -3.902425000000000
C       2.661449000000000     -2.008896000000000     -0.931095000000000
C      -1.049951000000000     -0.630441000000000     -3.582476000000000
C      -1.679042000000000     -2.330540000000000     -1.874797000000000
C      -0.895073000000000     -3.027175000000000     -0.949829000000000
C       1.559497000000000     -2.822173000000000     -0.551435000000000
C      -2.292566000000000     -0.021969000000000     -3.313156000000000
C      -2.840376000000000     -1.659104000000000     -1.494832000000000
C      -1.213831000000000     -2.995980000000000      0.402181000000000
C       1.248714000000000     -2.960904000000000      0.793447000000000
C      -3.217010000000000     -1.672381000000000     -0.135103000000000
C      -2.391366000000000     -2.324035000000000      0.817139000000000
C      -4.379320000000000     -0.777046000000000      0.321382000000000
C      -2.632331000000000     -2.116596000000000      2.315191000000000
C      -4.049110000000000     -0.133514000000000      1.655973000000000
C      -3.245125000000000     -0.753741000000000      2.563200000000000
C      -4.431745000000000      1.639639000000000      0.220786000000000
C      -1.250260000000000     -0.766021000000000      3.757569000000000
C      -4.048190000000000      1.290891000000000      1.556732000000000
C      -2.417766000000000      0.023182000000000      3.412942000000000
C      -2.691305000000000      3.366243000000000      1.729482000000000
C      -1.157636000000000      2.046876000000000      3.767808000000000
C      -1.395191000000000      3.910251000000000      2.153437000000000
C      -0.678703000000000      3.258310000000000      3.193202000000000
C      -0.613818000000000      4.672418000000000      1.248245000000000
C       0.765733000000000      3.233778000000000      3.222859000000000
C       0.827434000000000      4.547368000000000      1.209534000000000
C       1.532780000000000      3.756139000000000      2.149729000000000
C       1.244565000000000      4.611480000000000     -0.151626000000000
C       2.758480000000000      3.073006000000000      1.714369000000000
C       2.406273000000000      3.941199000000000     -0.620346000000000
C       3.201658000000000      3.174402000000000      0.336581000000000
C       2.398971000000000      3.568585000000000     -1.986192000000000
C       4.015915000000000      2.125969000000000     -0.177435000000000
C       3.202512000000000      2.481487000000000     -2.460712000000000
C       3.998496000000000      1.766381000000000     -1.571607000000000
C       2.450611000000000      1.769315000000000     -3.452080000000000
C       4.140627000000000      0.343125000000000     -1.688039000000000
C       2.551169000000000      0.391517000000000     -3.508552000000000
C       3.434633000000000     -0.334410000000000     -2.642486000000000
C       1.372960000000000     -0.396317000000000     -3.758625000000000
C       2.893689000000000     -1.731442000000000     -2.421870000000000
C      -0.821538000000000     -1.896041000000000     -2.981199000000000
C       0.498186000000000     -3.283602000000000     -1.532339000000000
C       1.557718000000000     -1.659156000000000     -3.154177000000000
C       0.464017000000000     -2.396684000000000     -2.756637000000000
C      -3.165212000000000      2.110046000000000      2.316352000000000
C      -2.363097000000000      1.438800000000000      3.318127000000000
Cl     -0.160909000000000     -5.216117000000000      1.669746000000000
Cl      0.739649000000000     -5.053921000000000     -1.974788000000000
Cl      3.990102000000000     -3.035902000000000     -3.131539000000000
Cl      6.128544000000000     -1.013307000000000     -0.274238000000000
Cl     -3.660227000000000     -3.495172000000000      2.979895000000000
Cl     -5.932142000000000     -1.771992000000000      0.365638000000000
Cl     -4.559437000000000     -1.630894000000000     -3.664519000000000
Cl      4.908141000000000     -1.227256000000000      3.449199000000000
