96

C       0.011575000000000      1.954809000000000     -3.311594000000000
C      -4.097488000000000      1.050280000000000     -1.277645000000000
C       2.256837000000000     -0.710971000000000      3.608538000000000
C      -2.308040000000000     -0.635174000000000      3.621975000000000
C      -0.016981000000000      0.558419000000000     -3.574063000000000
C      -3.150756000000000      2.237087000000000     -1.475094000000000
C       2.023960000000000     -2.076863000000000      3.257867000000000
C      -1.306144000000000      0.263647000000000      4.031153000000000
C      -1.255191000000000     -0.178387000000000     -3.332993000000000
C      -2.718954000000000      3.120864000000000     -0.497098000000000
C      -1.290334000000000      1.634476000000000      3.629976000000000
C       0.713730000000000     -2.631476000000000      3.276196000000000
C      -2.388166000000000      0.537226000000000     -2.884071000000000
C      -0.292457000000000     -1.817846000000000      3.846292000000000
C      -2.317280000000000      1.947996000000000     -2.575048000000000
C      -0.061580000000000     -0.470038000000000      4.203215000000000
C      -1.135680000000000      2.631370000000000     -2.758811000000000
C       1.192614000000000      0.151382000000000      4.001104000000000
C      -0.725775000000000      3.612588000000000     -1.827937000000000
C       1.238309000000000      1.551578000000000      3.623548000000000
C       0.787964000000000      3.818282000000000     -1.983579000000000
C       2.387763000000000      1.969226000000000      2.919881000000000
C       1.167226000000000      2.625288000000000     -2.851773000000000
C       3.432848000000000      1.076046000000000      2.513868000000000
C       2.334395000000000      1.915438000000000     -2.681520000000000
C       3.374292000000000     -0.234668000000000      2.854151000000000
C       2.369652000000000      0.551022000000000     -3.015615000000000
C       3.958363000000000     -1.340422000000000      1.994796000000000
C       1.237831000000000     -0.138604000000000     -3.499061000000000
C       2.994487000000000     -2.471706000000000      2.284785000000000
C       1.222325000000000     -1.552961000000000     -3.338955000000000
C       2.667189000000000     -3.406182000000000      1.360329000000000
C       0.044267000000000     -2.253178000000000     -3.179298000000000
C       1.360385000000000     -4.004923000000000      1.371670000000000
C      -1.232234000000000     -1.588586000000000     -3.051768000000000
C       0.340550000000000     -3.600303000000000      2.274013000000000
C      -2.255372000000000     -2.180323000000000     -2.249650000000000
C      -1.055508000000000     -3.683586000000000      1.842997000000000
C      -3.299051000000000     -1.388318000000000     -1.713324000000000
C      -4.194102000000000     -0.707328000000000      0.514966000000000
C      -3.811499000000000     -1.138352000000000      1.775122000000000
C      -2.052420000000000     -2.820466000000000      2.447847000000000
C      -3.375544000000000     -0.046838000000000     -2.075522000000000
C      -4.202622000000000      0.668302000000000      0.168711000000000
C      -3.342917000000000     -0.215943000000000      2.740624000000000
C      -1.676516000000000     -1.936993000000000      3.434757000000000
C      -3.867804000000000      1.591261000000000      1.140270000000000
C      -3.401217000000000      1.154611000000000      2.410440000000000
C      -3.370732000000000      3.013701000000000      0.870583000000000
C      -2.414985000000000      2.083981000000000      2.889924000000000
C      -1.470380000000000      3.820329000000000     -0.676795000000000
C      -0.015877000000000      2.297874000000000      3.431372000000000
C      -0.750785000000000      4.465216000000000      0.492981000000000
C      -0.014926000000000      3.406740000000000      2.555063000000000
C      -1.164297000000000      3.825431000000000      1.810892000000000
C      -2.346546000000000      3.176920000000000      1.976248000000000
C       1.486316000000000      3.758457000000000     -0.640044000000000
C       2.312893000000000      3.007585000000000      1.933190000000000
C       2.704792000000000      3.009619000000000     -0.456150000000000
C       3.131249000000000      2.695162000000000      0.823040000000000
C       3.336984000000000      2.229255000000000     -1.588313000000000
C       4.057739000000000      1.535861000000000      1.208474000000000
C       3.718562000000000      0.814931000000000     -1.135014000000000
C       3.996201000000000      0.426126000000000      0.168232000000000
C       3.262790000000000     -0.123935000000000     -2.068330000000000
C       3.896029000000000     -0.947382000000000      0.514159000000000
C       3.169650000000000     -1.481056000000000     -1.761040000000000
C       3.510508000000000     -1.905226000000000     -0.458157000000000
C       2.406201000000000     -2.336353000000000     -2.759111000000000
C       3.228733000000000     -3.360139000000000     -0.051414000000000
C       1.702809000000000     -3.487436000000000     -2.083085000000000
C       2.072673000000000     -3.943115000000000     -0.851352000000000
C       0.319442000000000     -3.493474000000000     -2.467508000000000
C       1.054712000000000     -4.408544000000000      0.042851000000000
C      -0.646927000000000     -4.055759000000000     -1.679868000000000
C      -0.283989000000000     -4.481339000000000     -0.366275000000000
C      -2.084737000000000     -3.599088000000000     -1.712132000000000
C      -1.327445000000000     -4.160935000000000      0.544502000000000
C      -4.117691000000000     -1.833585000000000     -0.502603000000000
C      -3.409195000000000     -2.595789000000000      1.775089000000000
C      -2.453139000000000     -3.656462000000000     -0.236064000000000
C      -3.403502000000000     -2.889113000000000      0.299552000000000
C       0.748643000000000      4.146713000000000      0.466686000000000
C       1.137101000000000      3.714507000000000      1.756036000000000
Cl      1.160388000000000      5.417784000000000     -2.829399000000000
Cl     -1.041577000000000      6.288969000000000      0.501845000000000
Cl      4.801761000000000      3.132714000000000     -2.254787000000000
Cl      5.794019000000000      2.114896000000000      1.425445000000000
Cl      5.687499000000000     -1.748642000000000      2.478610000000000
Cl      4.762137000000000     -4.360462000000000     -0.247868000000000
Cl     -4.748028000000000      4.232964000000000      1.024882000000000
Cl     -5.757377000000000      1.419635000000000     -2.000167000000000
Cl     -5.804463000000000     -2.367014000000000     -1.043409000000000
Cl      3.554530000000000     -2.913178000000000     -4.094603000000000
Cl     -3.120923000000000     -4.771016000000000     -2.711774000000000
Cl     -4.675191000000000     -3.644453000000000      2.671127000000000
