98

C      -0.908896000000000      3.064125000000000      2.419440000000000
C       3.653023000000000      1.741238000000000      1.776162000000000
C      -1.099622000000000     -2.390587000000000     -3.443714000000000
C       3.464446000000000     -1.942889000000000     -2.501314000000000
C      -0.879567000000000      1.662111000000000      3.011673000000000
C       2.666244000000000      2.782955000000000      1.248665000000000
C      -0.952797000000000     -3.499096000000000     -2.535345000000000
C       2.409544000000000     -1.262756000000000     -3.368613000000000
C       0.373640000000000      1.058169000000000      3.386374000000000
C       2.511482000000000      3.174230000000000     -0.075392000000000
C       2.284596000000000      0.133566000000000     -3.526008000000000
C       0.318754000000000     -3.865652000000000     -2.008542000000000
C       1.598738000000000      1.686800000000000      3.015078000000000
C       1.440057000000000     -3.216605000000000     -2.572270000000000
C       1.575435000000000      2.830314000000000      2.133574000000000
C       1.295533000000000     -2.105306000000000     -3.478413000000000
C       0.383898000000000      3.406891000000000      1.747833000000000
C       0.012160000000000     -1.617547000000000     -3.863501000000000
C       0.227947000000000      3.854313000000000      0.435039000000000
C      -0.147342000000000     -0.204044000000000     -4.092784000000000
C      -1.251839000000000      3.987524000000000      0.112983000000000
C      -1.459401000000000      0.316692000000000     -3.920347000000000
C      -1.868435000000000      3.197395000000000      1.253323000000000
C      -2.547042000000000     -0.474685000000000     -3.463013000000000
C      -2.910444000000000      2.389185000000000      1.095561000000000
C      -2.379752000000000     -1.808649000000000     -3.239426000000000
C      -3.230241000000000      1.292713000000000      2.084045000000000
C      -3.153741000000000     -2.567369000000000     -2.177311000000000
C      -2.038398000000000      0.875405000000000      2.926034000000000
C      -2.137771000000000     -3.611791000000000     -1.764385000000000
C      -1.993933000000000     -0.458731000000000      3.326292000000000
C      -2.062634000000000     -4.090512000000000     -0.491350000000000
C      -0.787445000000000     -1.049934000000000      3.734578000000000
C      -0.813091000000000     -4.511123000000000      0.052162000000000
C       0.445997000000000     -0.344213000000000      3.693726000000000
C       0.416144000000000     -4.359728000000000     -0.658128000000000
C       1.677764000000000     -1.093435000000000      3.470064000000000
C       1.643547000000000     -4.138291000000000      0.092222000000000
C       2.829421000000000     -0.425728000000000      2.937947000000000
C       4.243879000000000     -0.530366000000000      0.899515000000000
C       4.203960000000000     -1.443457000000000     -0.166771000000000
C       2.763331000000000     -3.461621000000000     -0.538276000000000
C       2.765021000000000      0.952681000000000      2.754239000000000
C       4.140442000000000      0.851798000000000      0.668128000000000
C       4.028971000000000     -1.009341000000000     -1.477428000000000
C       2.656571000000000     -3.066024000000000     -1.851669000000000
C       4.067777000000000      1.293178000000000     -0.642352000000000
C       3.968470000000000      0.367785000000000     -1.707073000000000
C       3.519038000000000      2.648815000000000     -1.082151000000000
C       3.172151000000000      0.956186000000000     -2.767197000000000
C       1.261086000000000      3.723790000000000     -0.498753000000000
C       0.994747000000000      0.686303000000000     -3.909080000000000
C       0.894823000000000      3.845790000000000     -1.957423000000000
C       0.748782000000000      2.038564000000000     -3.563579000000000
C       1.649018000000000      2.819036000000000     -2.785668000000000
C       2.843584000000000      2.274605000000000     -2.389581000000000
C      -1.564188000000000      3.389423000000000     -1.240934000000000
C      -1.662221000000000      1.652346000000000     -3.435751000000000
C      -2.680269000000000      2.503208000000000     -1.411008000000000
C      -2.745692000000000      1.686972000000000     -2.528261000000000
C      -3.562395000000000      2.126863000000000     -0.240990000000000
C      -3.502215000000000      0.359316000000000     -2.624671000000000
C      -3.732685000000000      0.616205000000000     -0.165557000000000
C      -3.658657000000000     -0.262294000000000     -1.245707000000000
C      -3.582752000000000      0.156678000000000      1.137190000000000
C      -3.466668000000000     -1.637803000000000     -0.996339000000000
C      -3.388376000000000     -1.197333000000000      1.410399000000000
C      -3.348345000000000     -2.112861000000000      0.336908000000000
C      -2.951488000000000     -1.545548000000000      2.821591000000000
C      -2.981489000000000     -3.579414000000000      0.609156000000000
C      -2.070326000000000     -2.776091000000000      2.842717000000000
C      -2.091365000000000     -3.711612000000000      1.835276000000000
C      -0.860192000000000     -2.474831000000000      3.522849000000000
C      -0.876114000000000     -4.363151000000000      1.471043000000000
C       0.320345000000000     -3.165735000000000      3.254399000000000
C       0.314466000000000     -4.145383000000000      2.181800000000000
C       1.572743000000000     -2.506158000000000      3.284594000000000
C       1.551241000000000     -4.080818000000000      1.504953000000000
C       3.920783000000000     -1.195128000000000      2.211732000000000
C       3.879553000000000     -2.841169000000000      0.307923000000000
C       2.396549000000000     -3.148106000000000      2.271509000000000
C       3.463637000000000     -2.542705000000000      1.724329000000000
C      -0.556003000000000      3.418983000000000     -2.193310000000000
C      -0.581535000000000      2.498824000000000     -3.266512000000000
Cl     -1.790089000000000      5.756185000000000      0.162238000000000
Cl      1.189450000000000      5.571904000000000     -2.574902000000000
Cl     -5.199667000000000      2.973170000000000     -0.381235000000000
Cl     -5.143699000000000      0.563612000000000     -3.427921000000000
Cl     -4.700608000000000     -3.304141000000000     -2.837411000000000
Cl     -4.516467000000000     -4.579176000000000      0.766777000000000
Cl      4.878942000000000      3.863369000000000     -1.334431000000000
Cl      5.063099000000000      2.546445000000000      2.643350000000000
Cl      5.369874000000000     -3.948991000000000      0.247796000000000
Cl      4.815496000000000     -2.650187000000000     -3.568575000000000
Cl     -4.419711000000000     -1.787078000000000      3.908553000000000
Cl     -4.648883000000000      1.774911000000000      3.158451000000000
Cl     -1.315619000000000      4.293169000000000      3.767842000000000
Cl      5.447069000000000     -1.362141000000000      3.303424000000000
