98

C      -0.899442000000000      3.231711000000000      2.286163000000000
C       3.412297000000000      1.200330000000000      2.635185000000000
C      -0.779111000000000     -2.439524000000000     -3.366676000000000
C       3.530992000000000     -2.629436000000000     -1.497777000000000
C      -1.217899000000000      1.866935000000000      2.895993000000000
C       2.750086000000000      2.364384000000000      1.905780000000000
C      -0.999680000000000     -3.489847000000000     -2.423335000000000
C       2.790584000000000     -1.825585000000000     -2.565174000000000
C      -0.194548000000000      1.100987000000000      3.546215000000000
C       2.943538000000000      2.708892000000000      0.570668000000000
C       2.932570000000000     -0.483360000000000     -2.791256000000000
C       0.058047000000000     -4.004340000000000     -1.625439000000000
C       1.176699000000000      1.513613000000000      3.414990000000000
C       1.359786000000000     -3.556222000000000     -1.956408000000000
C       1.522480000000000      2.623203000000000      2.534652000000000
C       1.582066000000000     -2.520114000000000     -2.898293000000000
C       0.544200000000000      3.349087000000000      1.901475000000000
C       0.510591000000000     -1.871739000000000     -3.557908000000000
C       0.738156000000000      3.752855000000000      0.577084000000000
C       0.636698000000000     -0.464536000000000     -3.842673000000000
C      -0.603717000000000      4.073015000000000     -0.060515000000000
C      -0.576556000000000      0.259793000000000     -3.967047000000000
C      -1.559161000000000      3.444549000000000      0.938034000000000
C      -1.860223000000000     -0.327290000000000     -3.736527000000000
C      -2.664270000000000      2.801811000000000      0.579374000000000
C      -1.966590000000000     -1.650222000000000     -3.454794000000000
C      -3.361206000000000      1.829318000000000      1.500040000000000
C      -3.056950000000000     -2.218955000000000     -2.565447000000000
C      -2.451163000000000      1.271525000000000      2.579581000000000
C      -2.329881000000000     -3.378396000000000     -1.917790000000000
C      -2.707029000000000     -0.030694000000000      3.002308000000000
C      -2.596076000000000     -3.791125000000000     -0.654633000000000
C      -1.733215000000000     -0.776938000000000      3.683058000000000
C      -1.563374000000000     -4.368064000000000      0.155402000000000
C      -0.422253000000000     -0.273510000000000      3.902269000000000
C      -0.205618000000000     -4.432458000000000     -0.273390000000000
C       0.686912000000000     -1.222699000000000      3.960493000000000
C       0.858529000000000     -4.361396000000000      0.723509000000000
C       2.021662000000000     -0.768860000000000      3.642807000000000
C       3.801259000000000     -1.157352000000000      1.931841000000000
C       3.885664000000000     -2.125321000000000      0.910342000000000
C       2.183718000000000     -3.882007000000000      0.318533000000000
C       2.230467000000000      0.624717000000000      3.434299000000000
C       3.961689000000000      0.200072000000000      1.661298000000000
C       4.052360000000000     -1.735416000000000     -0.410135000000000
C       2.411968000000000     -3.542715000000000     -0.986847000000000
C       4.233553000000000      0.577079000000000      0.343683000000000
C       4.259601000000000     -0.376349000000000     -0.679886000000000
C       4.038308000000000      1.980635000000000     -0.202194000000000
C       4.019769000000000      0.264624000000000     -2.028720000000000
C       1.907572000000000      3.414763000000000     -0.106698000000000
C       1.848918000000000      0.244847000000000     -3.440913000000000
C       1.869891000000000      3.475965000000000     -1.612820000000000
C       1.766238000000000      1.626131000000000     -3.200374000000000
C       2.612947000000000      2.294223000000000     -2.223520000000000
C       3.622742000000000      1.663185000000000     -1.616354000000000
C      -0.716606000000000      3.444988000000000     -1.432324000000000
C      -0.648950000000000      1.625427000000000     -3.563822000000000
C      -1.908636000000000      2.739764000000000     -1.820666000000000
C      -1.876291000000000      1.885240000000000     -2.907306000000000
C      -3.064664000000000      2.577673000000000     -0.859220000000000
C      -2.812122000000000      0.695289000000000     -3.138485000000000
C      -3.504621000000000      1.122468000000000     -0.791536000000000
C      -3.359053000000000      0.185361000000000     -1.813553000000000
C      -3.706856000000000      0.716955000000000      0.522773000000000
C      -3.458461000000000     -1.186764000000000     -1.500912000000000
C      -3.807285000000000     -0.633367000000000      0.857005000000000
C      -3.701364000000000     -1.600488000000000     -0.164870000000000
C      -3.723246000000000     -0.970593000000000      2.335790000000000
C      -3.631641000000000     -3.090323000000000      0.210130000000000
C      -3.087121000000000     -2.320767000000000      2.562390000000000
C      -3.041440000000000     -3.284103000000000      1.596504000000000
C      -1.993903000000000     -2.184086000000000      3.478150000000000
C      -1.897870000000000     -4.153249000000000      1.523354000000000
C      -0.938011000000000     -3.071903000000000      3.486281000000000
C      -0.875916000000000     -4.093773000000000      2.470380000000000
C       0.398896000000000     -2.602317000000000      3.747948000000000
C       0.490607000000000     -4.259092000000000      2.084239000000000
C       2.908960000000000     -1.658086000000000      2.982219000000000
C       3.198422000000000     -3.413361000000000      1.352736000000000
C       1.284948000000000     -3.429605000000000      2.993445000000000
C       2.527114000000000     -2.956340000000000      2.630507000000000
C       0.456299000000000      3.257030000000000     -2.140867000000000
C       0.508876000000000      2.293430000000000     -3.181902000000000
Cl     -0.872502000000000      5.899928000000000     -0.172113000000000
Cl      2.564379000000000      5.075851000000000     -2.224926000000000
Cl     -4.467328000000000      3.675450000000000     -1.353002000000000
Cl     -4.190050000000000      1.123386000000000     -4.279251000000000
Cl     -4.530344000000000     -2.749252000000000     -3.524987000000000
Cl     -5.307609000000000     -3.837129000000000      0.067964000000000
Cl      5.611614000000000      2.950519000000000     -0.117779000000000
Cl      4.749698000000000      1.797577000000000      3.767957000000000
Cl      4.431379000000000     -4.757432000000000      1.679110000000000
Cl      4.880598000000000     -3.631981000000000     -2.254975000000000
Cl     -5.390668000000000     -0.885716000000000      3.114661000000000
Cl     -4.857612000000000      2.602115000000000      2.250410000000000
Cl     -1.387549000000000      4.556128000000000      3.495530000000000
Cl      5.577293000000000      0.290254000000000     -3.056806000000000
