100

C       1.845140000000000      2.154836000000000     -2.964752000000000
C      -2.734629000000000      2.877618000000000     -1.766280000000000
C       0.783670000000000     -1.810176000000000      3.911012000000000
C      -3.346181000000000      0.223288000000000      3.177283000000000
C       1.203952000000000      0.794820000000000     -3.230067000000000
C      -1.364540000000000      3.518899000000000     -1.535771000000000
C       0.095116000000000     -2.917792000000000      3.251161000000000
C      -2.006438000000000      0.572612000000000      3.832102000000000
C      -0.228898000000000      0.680599000000000     -3.379733000000000
C      -0.886233000000000      4.040039000000000     -0.334723000000000
C      -1.337212000000000      1.826958000000000      3.675495000000000
C      -1.278222000000000     -2.824215000000000      2.883983000000000
C      -1.051266000000000      1.792604000000000     -3.071347000000000
C      -1.979776000000000     -1.703064000000000      3.370691000000000
C      -0.471881000000000      2.989136000000000     -2.476036000000000
C      -1.293860000000000     -0.586938000000000      4.039771000000000
C       0.887024000000000      3.098564000000000     -2.301822000000000
C       0.123884000000000     -0.600701000000000      4.228029000000000
C       1.387723000000000      3.667941000000000     -1.129005000000000
C       0.837090000000000      0.645922000000000      4.141696000000000
C       2.837687000000000      3.250336000000000     -0.936281000000000
C       2.211386000000000      0.558560000000000      3.779202000000000
C       2.938002000000000      2.093604000000000     -1.915621000000000
C       2.831970000000000     -0.661658000000000      3.432325000000000
C       3.603688000000000      0.974691000000000     -1.654298000000000
C       2.133351000000000     -1.838856000000000      3.509281000000000
C       3.339248000000000     -0.311581000000000     -2.403267000000000
C       2.395860000000000     -3.015527000000000      2.583398000000000
C       1.971776000000000     -0.352683000000000     -3.058436000000000
C       1.011387000000000     -3.617496000000000      2.468660000000000
C       1.359345000000000     -1.615078000000000     -3.164939000000000
C       0.572838000000000     -4.255836000000000      1.319983000000000
C      -0.010573000000000     -1.740305000000000     -3.367933000000000
C      -0.780073000000000     -4.238995000000000      0.962852000000000
C      -0.870516000000000     -0.606164000000000     -3.371077000000000
C      -1.747168000000000     -3.457750000000000      1.680322000000000
C      -2.231552000000000     -0.743506000000000     -2.916123000000000
C      -2.884779000000000     -2.904963000000000      0.993738000000000
C      -2.942143000000000      0.377686000000000     -2.478515000000000
C      -3.992302000000000      1.207182000000000     -0.390224000000000
C      -4.148098000000000      0.551707000000000      0.833256000000000
C      -3.547568000000000     -1.778379000000000      1.516113000000000
C      -2.352615000000000      1.648607000000000     -2.605737000000000
C      -3.349413000000000      2.450916000000000     -0.466427000000000
C      -3.641740000000000      1.106139000000000      2.008526000000000
C      -3.116060000000000     -1.222916000000000      2.732303000000000
C      -2.933925000000000      3.051926000000000      0.715133000000000
C      -3.042304000000000      2.362842000000000      1.938444000000000
C      -1.864914000000000      4.137230000000000      0.822088000000000
C      -1.943226000000000      2.775809000000000      2.814840000000000
C       0.521679000000000      4.113715000000000     -0.125857000000000
C       0.100147000000000      1.873736000000000      3.846964000000000
C       1.111820000000000      4.332643000000000      1.250577000000000
C       0.790707000000000      2.935125000000000      3.196727000000000
C       0.153855000000000      3.856148000000000      2.335037000000000
C      -1.203881000000000      3.763871000000000      2.137856000000000
C       3.089979000000000      2.819894000000000      0.491766000000000
C       2.834465000000000      1.599861000000000      3.000151000000000
C       3.795702000000000      1.605607000000000      0.777663000000000
C       3.703604000000000      1.038511000000000      2.039686000000000
C       4.288988000000000      0.707372000000000     -0.335549000000000
C       3.898183000000000     -0.444254000000000      2.371110000000000
C       3.849846000000000     -0.729875000000000     -0.094362000000000
C       3.597018000000000     -1.301245000000000      1.151031000000000
C       3.356278000000000     -1.309680000000000     -1.257172000000000
C       2.861161000000000     -2.504863000000000      1.213937000000000
C       2.626744000000000     -2.498167000000000     -1.222644000000000
C       2.388863000000000     -3.118908000000000      0.023275000000000
C       1.907642000000000     -2.888071000000000     -2.503061000000000
C       1.465992000000000     -4.347593000000000      0.091153000000000
C       0.635641000000000     -3.648065000000000     -2.207225000000000
C       0.434915000000000     -4.316533000000000     -1.025419000000000
C      -0.458864000000000     -3.022388000000000     -2.849453000000000
C      -0.872843000000000     -4.365094000000000     -0.477515000000000
C      -1.745883000000000     -3.156770000000000     -2.363421000000000
C      -1.958050000000000     -3.834972000000000     -1.155483000000000
C      -2.809295000000000     -2.129437000000000     -2.626316000000000
C      -3.184402000000000     -3.335247000000000     -0.440995000000000
C      -4.143730000000000      0.250477000000000     -1.551058000000000
C      -4.462990000000000     -0.918983000000000      0.646444000000000
C      -3.570469000000000     -2.153601000000000     -1.312359000000000
C      -4.170925000000000     -1.076119000000000     -0.826888000000000
C       2.312661000000000      3.410420000000000      1.478934000000000
C       2.144043000000000      2.761648000000000      2.721320000000000
Cl      3.990947000000000      4.617414000000000     -1.405514000000000
Cl      1.575912000000000      6.106570000000000      1.473450000000000
Cl      6.126108000000000      0.826001000000000     -0.486290000000000
Cl      5.592268000000000     -0.791973000000000      2.994347000000000
Cl      3.629381000000000     -4.184853000000000      3.275768000000000
Cl      2.483499000000000     -5.876251000000000      0.047472000000000
Cl      3.017795000000000     -3.861826000000000     -3.597602000000000
Cl      4.663132000000000     -0.630037000000000     -3.643961000000000
Cl     -2.619274000000000      5.815630000000000      0.881205000000000
Cl     -3.848906000000000      4.016787000000000     -2.686959000000000
Cl      2.473628000000000      2.851428000000000     -4.567427000000000
Cl     -5.706924000000000      0.553523000000000     -2.488543000000000
Cl     -3.887342000000000     -2.646639000000000     -4.047702000000000
Cl     -6.227354000000000     -1.278230000000000      1.051751000000000
Cl     -4.524518000000000     -4.629425000000000     -0.430265000000000
Cl     -4.719752000000000      0.313412000000000      4.417755000000000
