100

C       0.946857000000000     -2.143847000000000      3.361365000000000
C      -3.133666000000000      0.323776000000000      3.060442000000000
C       0.687302000000000      0.719121000000000     -4.117330000000000
C      -3.374325000000000      2.126683000000000     -2.279765000000000
C       1.426729000000000     -0.692350000000000      3.325324000000000
C      -2.636836000000000     -1.101349000000000      2.848994000000000
C       1.082767000000000      2.057989000000000     -3.705985000000000
C      -2.795579000000000      0.885710000000000     -2.962612000000000
C       0.520636000000000      0.384166000000000      3.649985000000000
C      -2.981816000000000     -1.940307000000000      1.788963000000000
C      -3.046217000000000     -0.448824000000000     -2.591488000000000
C       0.143337000000000      2.967724000000000     -3.134406000000000
C      -0.864263000000000      0.104417000000000      3.779425000000000
C      -1.210763000000000      2.575054000000000     -3.182185000000000
C      -1.384425000000000     -1.221779000000000      3.465732000000000
C      -1.608173000000000      1.234924000000000     -3.600611000000000
C      -0.532541000000000     -2.248038000000000      3.137228000000000
C      -0.653750000000000      0.263629000000000     -3.976278000000000
C      -0.882250000000000     -3.129645000000000      2.111904000000000
C      -0.916144000000000     -1.111741000000000     -3.649153000000000
C       0.362825000000000     -3.824576000000000      1.591319000000000
C       0.229868000000000     -1.960308000000000     -3.560209000000000
C       1.457574000000000     -2.957761000000000      2.189858000000000
C       1.539502000000000     -1.469220000000000     -3.651291000000000
C       2.564918000000000     -2.633071000000000      1.533252000000000
C       1.778049000000000     -0.142089000000000     -3.949699000000000
C       3.410921000000000     -1.443241000000000      1.922242000000000
C       2.985392000000000      0.620425000000000     -3.429497000000000
C       2.651156000000000     -0.407585000000000      2.728688000000000
C       2.415179000000000      2.018095000000000     -3.283725000000000
C       3.045214000000000      0.935942000000000      2.568670000000000
C       2.839876000000000      2.889284000000000     -2.303093000000000
C       2.217896000000000      1.987511000000000      2.944426000000000
C       1.954146000000000      3.833255000000000     -1.750762000000000
C       0.880007000000000      1.757712000000000      3.388218000000000
C       0.563419000000000      3.863823000000000     -2.088709000000000
C      -0.132044000000000      2.738954000000000      3.118545000000000
C      -0.408598000000000      4.303964000000000     -1.103654000000000
C      -1.494266000000000      2.356331000000000      3.083900000000000
C      -3.397792000000000      2.212842000000000      1.461493000000000
C      -3.520843000000000      2.681969000000000      0.136984000000000
C      -1.765773000000000      3.876757000000000     -1.212154000000000
C      -1.840797000000000      1.043159000000000      3.476887000000000
C      -3.683251000000000      0.888139000000000      1.787840000000000
C      -3.827548000000000      1.808188000000000     -0.889036000000000
C      -2.156680000000000      3.062177000000000     -2.271003000000000
C      -4.102019000000000      0.035036000000000      0.761358000000000
C      -4.148720000000000      0.477453000000000     -0.560560000000000
C      -4.074595000000000     -1.477200000000000      0.840969000000000
C      -4.115106000000000     -0.682049000000000     -1.531856000000000
C      -2.082650000000000     -2.971525000000000      1.411323000000000
C      -2.127711000000000     -1.451261000000000     -2.939482000000000
C      -2.201835000000000     -3.653738000000000      0.068181000000000
C      -2.260534000000000     -2.833384000000000     -2.304405000000000
C      -2.932746000000000     -2.792101000000000     -0.948352000000000
C      -3.773591000000000     -1.824417000000000     -0.599937000000000
C       0.389771000000000     -3.807789000000000      0.082299000000000
C       0.231786000000000     -3.044769000000000     -2.597491000000000
C       1.570789000000000     -3.464862000000000     -0.623624000000000
C       1.484994000000000     -3.126510000000000     -1.970845000000000
C       2.829079000000000     -3.047851000000000      0.105457000000000
C       2.473159000000000     -2.238173000000000     -2.729615000000000
C       3.353859000000000     -1.737138000000000     -0.460881000000000
C       3.163534000000000     -1.284448000000000     -1.765834000000000
C       3.718153000000000     -0.859025000000000      0.553275000000000
C       3.391479000000000      0.079068000000000     -2.053216000000000
C       3.945231000000000      0.492654000000000      0.296289000000000
C       3.802847000000000      0.968788000000000     -1.024388000000000
C       4.053515000000000      1.403899000000000      1.508582000000000
C       3.902518000000000      2.478912000000000     -1.294277000000000
C       3.549765000000000      2.793198000000000      1.202775000000000
C       3.482361000000000      3.280586000000000     -0.072631000000000
C       2.563348000000000      3.170954000000000      2.166681000000000
C       2.404985000000000      4.151672000000000     -0.417775000000000
C       1.601207000000000      4.106969000000000      1.877839000000000
C       1.490038000000000      4.560796000000000      0.536321000000000
C       0.243294000000000      4.102566000000000      2.539049000000000
C       0.081686000000000      4.679968000000000      0.211557000000000
C      -2.403616000000000      3.020495000000000      2.160894000000000
C      -2.709872000000000      3.964317000000000     -0.019712000000000
C      -0.659402000000000      4.488999000000000      1.378043000000000
C      -1.966918000000000      4.010233000000000      1.304331000000000
C      -0.839067000000000     -3.785773000000000     -0.587046000000000
C      -0.918450000000000     -3.392373000000000     -1.923227000000000
Cl      0.472826000000000     -5.561041000000000      2.219288000000000
Cl     -3.017077000000000     -5.302058000000000      0.256062000000000
Cl      4.101103000000000     -4.379514000000000      0.001904000000000
Cl      3.719973000000000     -3.222106000000000     -3.652245000000000
Cl      4.406639000000000      0.547095000000000     -4.585951000000000
Cl      5.609199000000000      2.891960000000000     -1.839577000000000
Cl     -5.707905000000000     -2.147117000000000      1.384261000000000
Cl     -4.402213000000000      0.397592000000000      4.406704000000000
Cl     -3.813143000000000      5.431540000000000     -0.231341000000000
Cl     -4.741812000000000      2.854175000000000     -3.278504000000000
Cl      5.786687000000000      1.452222000000000      2.126069000000000
Cl      4.925687000000000     -1.985455000000000      2.820780000000000
Cl      1.436054000000000     -2.897025000000000      4.985590000000000
Cl     -5.752767000000000     -0.931117000000000     -2.355056000000000
Cl     -3.156474000000000     -3.967002000000000     -3.478803000000000
Cl      0.180589000000000      5.369086000000000      3.921134000000000
