102

C       0.209920000000000     -3.125862000000000     -3.015165000000000
C       3.306315000000000      0.497384000000000     -3.334777000000000
C      -1.225776000000000      1.525525000000000      3.687816000000000
C       2.405609000000000      3.558355000000000      1.321911000000000
C      -0.688015000000000     -1.943042000000000     -3.385860000000000
C       3.243775000000000     -0.908078000000000     -2.747436000000000
C      -1.909795000000000      2.390837000000000      2.645065000000000
C       2.175138000000000      2.405636000000000      2.296444000000000
C      -0.132263000000000     -0.764404000000000     -3.987577000000000
C       3.712978000000000     -1.292616000000000     -1.492843000000000
C       2.860304000000000      1.196131000000000      2.307048000000000
C      -1.255509000000000      3.380092000000000      1.862473000000000
C       1.296620000000000     -0.602706000000000     -4.009377000000000
C       0.137577000000000      3.497810000000000      2.043080000000000
C       2.151849000000000     -1.568894000000000     -3.327553000000000
C       0.877381000000000      2.490087000000000      2.809414000000000
C       1.620238000000000     -2.692780000000000     -2.746334000000000
C       0.261262000000000      1.403890000000000      3.425607000000000
C       2.113598000000000     -3.126729000000000     -1.512110000000000
C       0.950877000000000      0.178346000000000      3.474571000000000
C       1.090404000000000     -4.024290000000000     -0.843525000000000
C       0.162276000000000     -1.067566000000000      3.880123000000000
C      -0.146996000000000     -3.736640000000000     -1.675807000000000
C      -1.313272000000000     -0.946080000000000      3.548520000000000
C      -1.361805000000000     -3.637495000000000     -1.149499000000000
C      -1.947311000000000      0.216523000000000      3.482445000000000
C      -2.490478000000000     -2.931505000000000     -1.858890000000000
C      -3.253008000000000      0.402978000000000      2.733983000000000
C      -2.004272000000000     -1.931305000000000     -2.893369000000000
C      -3.068596000000000      1.794098000000000      2.198894000000000
C      -2.791792000000000     -0.798413000000000     -3.086684000000000
C      -3.653038000000000      2.220028000000000      1.009491000000000
C      -2.282511000000000      0.344849000000000     -3.724805000000000
C      -3.096612000000000      3.254686000000000      0.272849000000000
C      -0.918049000000000      0.430107000000000     -4.121317000000000
C      -1.828306000000000      3.810432000000000      0.615949000000000
C      -0.286633000000000      1.744802000000000     -4.118385000000000
C      -0.958488000000000      4.313121000000000     -0.431555000000000
C       1.148237000000000      1.836261000000000     -3.950655000000000
C       2.807742000000000      2.708446000000000     -2.305062000000000
C       2.614148000000000      3.498472000000000     -1.153577000000000
C       0.443472000000000      4.373817000000000     -0.205237000000000
C       1.909705000000000      0.631472000000000     -3.965846000000000
C       3.521718000000000      1.514252000000000     -2.253595000000000
C       3.075023000000000      3.061855000000000      0.078213000000000
C       0.963542000000000      4.010031000000000      1.049453000000000
C       4.067960000000000      1.130446000000000     -1.025827000000000
C       3.835471000000000      1.883923000000000      0.126712000000000
C       4.508771000000000     -0.279692000000000     -0.687424000000000
C       4.057144000000000      1.059767000000000      1.378065000000000
C       3.130267000000000     -2.423859000000000     -0.860113000000000
C       2.244296000000000      0.069097000000000      2.902979000000000
C       3.308450000000000     -2.665570000000000      0.621350000000000
C       2.878414000000000     -1.304575000000000      2.685500000000000
C       3.636192000000000     -1.390540000000000      1.374002000000000
C       4.175031000000000     -0.327603000000000      0.787966000000000
C       0.899479000000000     -3.621693000000000      0.600482000000000
C       0.547153000000000     -2.217865000000000      2.997067000000000
C      -0.387117000000000     -3.497317000000000      1.156640000000000
C      -0.545161000000000     -2.804134000000000      2.361552000000000
C      -1.628994000000000     -3.746887000000000      0.332928000000000
C      -1.839313000000000     -2.175137000000000      2.841971000000000
C      -2.614270000000000     -2.607900000000000      0.519055000000000
C      -2.715872000000000     -1.808878000000000      1.657117000000000
C      -3.122103000000000     -2.176304000000000     -0.700624000000000
C      -3.382786000000000     -0.573719000000000      1.565010000000000
C      -3.782868000000000     -0.954694000000000     -0.815215000000000
C      -3.939631000000000     -0.147573000000000      0.328284000000000
C      -4.002246000000000     -0.434253000000000     -2.220792000000000
C      -4.487753000000000      1.280436000000000      0.170747000000000
C      -3.970401000000000      1.073908000000000     -2.268060000000000
C      -4.229183000000000      1.851352000000000     -1.206414000000000
C      -3.038426000000000      1.495466000000000     -3.304193000000000
C      -3.696379000000000      3.272310000000000     -1.108789000000000
C      -2.436561000000000      2.724394000000000     -3.262410000000000
C      -2.651992000000000      3.583347000000000     -2.116386000000000
C      -1.063885000000000      2.854924000000000     -3.688228000000000
C      -1.453900000000000      4.192522000000000     -1.800380000000000
C       1.683834000000000      2.925998000000000     -3.219271000000000
C       1.440199000000000      4.450980000000000     -1.358500000000000
C      -0.496393000000000      3.869004000000000     -2.866234000000000
C       0.859299000000000      3.903677000000000     -2.646817000000000
C       1.987754000000000     -3.042354000000000      1.264675000000000
C       1.805927000000000     -2.330372000000000      2.448271000000000
Cl      1.573342000000000     -5.802027000000000     -0.950686000000000
Cl      4.588928000000000     -3.966979000000000      0.911193000000000
Cl     -2.374861000000000     -5.372690000000000      0.778248000000000
Cl     -2.753565000000000     -3.290098000000000      3.990304000000000
Cl     -4.701912000000000      0.254856000000000      3.858742000000000
Cl     -6.275107000000000      1.300701000000000      0.620939000000000
Cl      6.315060000000000     -0.508494000000000     -0.989263000000000
Cl      4.632143000000000      0.626002000000000     -4.618388000000000
Cl      2.024328000000000      6.191664000000000     -1.558601000000000
Cl      3.379669000000000      4.913224000000000      2.100729000000000
Cl     -5.582288000000000     -1.071397000000000     -2.921027000000000
Cl     -3.643698000000000     -4.147141000000000     -2.624843000000000
Cl      0.131239000000000     -4.378741000000000     -4.381244000000000
Cl      5.598944000000000      1.560293000000000      2.262289000000000
Cl      3.957289000000000     -1.733483000000000      4.118327000000000
Cl      0.426476000000000     -1.427965000000000      5.666881000000000
Cl     -1.503133000000000      2.212555000000000      5.388033000000000
Cl     -5.096707000000000      4.516465000000000     -1.208528000000000
