104

C      -0.936717000000000     -1.213475000000000     -4.042118000000000
C       3.333441000000000      0.673607000000000     -2.982027000000000
C      -0.883553000000000     -0.456234000000000      4.218183000000000
C       3.399915000000000      1.004101000000000      2.661329000000000
C      -1.285878000000000      0.219280000000000     -3.636494000000000
C       2.691488000000000     -0.700957000000000     -3.155392000000000
C      -1.105022000000000      0.998979000000000      3.854116000000000
C       2.679755000000000     -0.308077000000000      2.967982000000000
C      -0.268647000000000      1.245590000000000     -3.636933000000000
C       2.895143000000000     -1.813662000000000     -2.338591000000000
C       2.837671000000000     -1.503825000000000      2.276595000000000
C      -0.062283000000000      1.925352000000000      3.578334000000000
C       1.092206000000000      0.872695000000000     -3.792742000000000
C       1.250814000000000      1.417586000000000      3.588231000000000
C       1.471032000000000     -0.532283000000000     -3.821857000000000
C       1.487312000000000     -0.030625000000000      3.641051000000000
C       0.512594000000000     -1.518293000000000     -3.800854000000000
C       0.455464000000000     -0.962098000000000      3.719066000000000
C       0.720586000000000     -2.661347000000000     -3.027721000000000
C       0.610253000000000     -2.193087000000000      3.053902000000000
C      -0.609780000000000     -3.335015000000000     -2.744628000000000
C      -0.624900000000000     -3.081827000000000      2.902191000000000
C      -1.587254000000000     -2.242594000000000     -3.141448000000000
C      -1.911882000000000     -2.278154000000000      2.890797000000000
C      -2.698392000000000     -1.985627000000000     -2.461459000000000
C      -2.038815000000000     -1.105626000000000      3.497362000000000
C      -3.416668000000000     -0.660895000000000     -2.561750000000000
C      -3.113592000000000     -0.100006000000000      3.131433000000000
C      -2.505437000000000      0.461798000000000     -3.020261000000000
C      -2.372033000000000      1.190307000000000      3.338819000000000
C      -2.772701000000000      1.750036000000000     -2.508902000000000
C      -2.667132000000000      2.340400000000000      2.616701000000000
C      -1.838526000000000      2.767217000000000     -2.578699000000000
C      -1.690755000000000      3.312896000000000      2.397314000000000
C      -0.518859000000000      2.522666000000000     -3.034945000000000
C      -0.327169000000000      3.101771000000000      2.795613000000000
C       0.575911000000000      3.296461000000000     -2.478193000000000
C       0.732642000000000      3.693134000000000      2.029859000000000
C       1.892392000000000      2.794056000000000     -2.528398000000000
C       3.653464000000000      2.062526000000000     -0.931824000000000
C       3.681166000000000      2.151156000000000      0.462962000000000
C       2.023402000000000      3.138319000000000      2.049951000000000
C       2.136109000000000      1.605248000000000     -3.232768000000000
C       3.834371000000000      0.842940000000000     -1.579430000000000
C       3.868434000000000      1.011619000000000      1.241069000000000
C       2.275420000000000      2.021071000000000      2.872872000000000
C       4.109735000000000     -0.281751000000000     -0.800139000000000
C       4.115301000000000     -0.199035000000000      0.593743000000000
C       3.964849000000000     -1.716710000000000     -1.267279000000000
C       3.940290000000000     -1.564799000000000      1.230494000000000
C       1.886972000000000     -2.809373000000000     -2.268592000000000
C       1.794800000000000     -2.459525000000000      2.320786000000000
C       1.863017000000000     -3.816890000000000     -1.141210000000000
C       1.860174000000000     -3.649709000000000      1.363386000000000
C       2.608215000000000     -3.322818000000000      0.083961000000000
C       3.550392000000000     -2.389075000000000      0.024276000000000
C      -0.722270000000000     -3.679454000000000     -1.277391000000000
C      -0.657721000000000     -3.669909000000000      1.522006000000000
C      -1.893597000000000     -3.395450000000000     -0.551000000000000
C      -1.847713000000000     -3.407297000000000      0.847326000000000
C      -3.080582000000000     -2.720138000000000     -1.199499000000000
C      -2.824800000000000     -2.686403000000000      1.756303000000000
C      -3.553225000000000     -1.561460000000000     -0.340241000000000
C      -3.406869000000000     -1.478963000000000      1.043402000000000
C      -3.778739000000000     -0.421493000000000     -1.105492000000000
C      -3.526733000000000     -0.223374000000000      1.664106000000000
C      -3.901399000000000      0.835542000000000     -0.512474000000000
C      -3.788572000000000      0.936897000000000      0.888253000000000
C      -3.828301000000000      2.039175000000000     -1.442467000000000
C      -3.713714000000000      2.327717000000000      1.522137000000000
C      -3.227849000000000      3.244875000000000     -0.775217000000000
C      -3.140119000000000      3.352164000000000      0.557677000000000
C      -2.231478000000000      3.918348000000000     -1.689016000000000
C      -2.019249000000000      4.043305000000000      1.193418000000000
C      -1.038156000000000      4.436872000000000     -0.963967000000000
C      -1.032609000000000      4.616316000000000      0.454498000000000
C       0.245674000000000      4.237380000000000     -1.423059000000000
C       0.391739000000000      4.724766000000000      0.956945000000000
C       2.962945000000000      3.260067000000000     -1.546511000000000
C       3.050083000000000      3.440967000000000      0.957968000000000
C       1.168176000000000      4.434270000000000     -0.314587000000000
C       2.399570000000000      3.923748000000000     -0.313988000000000
C       0.460575000000000     -3.958222000000000     -0.580848000000000
C       0.492203000000000     -3.937405000000000      0.811698000000000
Cl     -0.834655000000000     -4.848130000000000     -3.775182000000000
Cl      2.522332000000000     -5.442417000000000     -1.720854000000000
Cl     -4.426892000000000     -3.942984000000000     -1.497138000000000
Cl     -4.174470000000000     -3.803321000000000      2.328408000000000
Cl     -4.589669000000000     -0.253352000000000      4.220471000000000
Cl     -5.380864000000000      2.828930000000000      2.122957000000000
Cl      5.564084000000000     -2.377897000000000     -1.903615000000000
Cl      4.679021000000000      0.937751000000000     -4.206485000000000
Cl      4.335516000000000      4.596866000000000      1.605805000000000
Cl      4.796783000000000      1.297929000000000      3.821343000000000
Cl     -5.489941000000000      2.403664000000000     -2.152460000000000
Cl     -4.886832000000000     -0.802206000000000     -3.659818000000000
Cl     -1.391074000000000     -1.458310000000000     -5.820280000000000
Cl      5.508517000000000     -2.162840000000000      1.990668000000000
Cl      2.594784000000000     -5.107514000000000      2.219559000000000
Cl     -0.640784000000000     -4.370223000000000      4.218219000000000
Cl     -0.990581000000000     -0.698572000000000      6.056395000000000
Cl      0.741455000000000      6.424357000000000      1.591240000000000
Cl      4.173592000000000      4.360758000000000     -2.418649000000000
Cl     -3.001854000000000      5.302125000000000     -2.677419000000000
