88

C       1.836973000000000      0.933482000000000     -3.155091000000000
C      -1.052407000000000      3.993979000000000     -1.525107000000000
C      -0.801493000000000     -2.271666000000000      3.435805000000000
C      -2.693766000000000      1.864751000000000      3.096155000000000
C       0.645607000000000      0.359042000000000     -3.664090000000000
C       0.383367000000000      3.892281000000000     -1.574633000000000
C      -2.045992000000000     -2.644235000000000      2.840529000000000
C      -1.527196000000000      1.351129000000000      3.750008000000000
C      -0.577382000000000      1.165606000000000     -3.686244000000000
C       1.181203000000000      3.892632000000000     -0.407395000000000
C      -0.259002000000000      1.942984000000000      3.579051000000000
C      -3.097223000000000     -1.710035000000000      2.655664000000000
C      -0.498326000000000      2.494856000000000     -3.232685000000000
C      -2.912919000000000     -0.453136000000000      3.281704000000000
C       0.709210000000000      3.027658000000000     -2.670468000000000
C      -1.678732000000000     -0.082256000000000      3.883850000000000
C       1.851863000000000      2.254083000000000     -2.614922000000000
C      -0.556880000000000     -0.946357000000000      3.885466000000000
C       2.722767000000000      2.310807000000000     -1.479374000000000
C       0.770860000000000     -0.370663000000000      3.731421000000000
C       3.582043000000000      1.041312000000000     -1.468185000000000
C       1.768025000000000     -1.217207000000000      3.182900000000000
C       2.848632000000000      0.172948000000000     -2.475721000000000
C       1.492346000000000     -2.534443000000000      2.695258000000000
C       2.702772000000000     -1.168350000000000     -2.325676000000000
C       0.237399000000000     -3.041206000000000      2.789253000000000
C       1.549698000000000     -1.807016000000000     -2.871106000000000
C      -0.357228000000000     -3.819621000000000      1.704416000000000
C       0.550182000000000     -1.082507000000000     -3.580201000000000
C      -1.761645000000000     -3.646680000000000      1.829031000000000
C      -0.714428000000000     -1.689745000000000     -3.662508000000000
C      -2.584557000000000     -3.752099000000000      0.726173000000000
C      -1.924526000000000     -0.891006000000000     -3.772096000000000
C      -3.739585000000000     -2.880159000000000      0.582071000000000
C      -1.891398000000000      0.516690000000000     -3.654958000000000
C      -3.956992000000000     -1.792717000000000      1.466488000000000
C      -3.027157000000000      1.183236000000000     -3.008886000000000
C      -4.555012000000000     -0.568249000000000      0.928671000000000
C      -2.840350000000000      2.497325000000000     -2.391262000000000
C      -3.015668000000000      3.599662000000000     -0.164703000000000
C      -3.468281000000000      3.020187000000000      1.105413000000000
C      -4.313130000000000      0.722042000000000      1.598661000000000
C      -1.598074000000000      3.137773000000000     -2.547748000000000
C      -1.723122000000000      4.164579000000000     -0.288853000000000
C      -2.609128000000000      2.998185000000000      2.240081000000000
C      -3.538558000000000      0.747986000000000      2.770144000000000
C      -0.905987000000000      4.265227000000000      0.887219000000000
C      -1.358034000000000      3.660005000000000      2.151040000000000
C       0.492922000000000      4.177206000000000      0.822784000000000
C      -0.223612000000000      3.173386000000000      2.842949000000000
C       2.388061000000000      3.070052000000000     -0.379647000000000
C       0.921508000000000      1.078528000000000      3.569971000000000
C       3.029932000000000      2.690723000000000      0.942077000000000
C       2.057599000000000      1.560963000000000      2.877734000000000
C       2.048846000000000      2.773975000000000      2.106054000000000
C       0.935426000000000      3.546247000000000      2.064412000000000
C       3.600186000000000      0.385648000000000     -0.100335000000000
C       2.827938000000000     -0.696579000000000      2.374728000000000
C       3.441096000000000     -1.042116000000000      0.054856000000000
C       3.112965000000000     -1.564818000000000      1.290459000000000
C       3.225497000000000     -1.946362000000000     -1.140154000000000
C       2.405102000000000     -2.898424000000000      1.535643000000000
C       2.074115000000000     -2.935735000000000     -0.907995000000000
C       1.622985000000000     -3.358909000000000      0.312863000000000
C       1.206767000000000     -2.922929000000000     -2.050697000000000
C       0.266389000000000     -3.889875000000000      0.435243000000000
C      -0.105003000000000     -3.439979000000000     -2.005449000000000
C      -0.594254000000000     -3.969630000000000     -0.741116000000000
C      -1.019224000000000     -2.894974000000000     -2.957604000000000
C      -2.005841000000000     -4.000726000000000     -0.556120000000000
C      -2.436117000000000     -2.908229000000000     -2.715265000000000
C      -2.916072000000000     -3.444936000000000     -1.536923000000000
C      -2.998139000000000     -1.678502000000000     -3.245287000000000
C      -3.994021000000000     -2.775280000000000     -0.823058000000000
C      -4.042486000000000     -1.050763000000000     -2.585035000000000
C      -4.545659000000000     -1.610249000000000     -1.333049000000000
C      -4.074167000000000      0.371014000000000     -2.498366000000000
C      -4.869240000000000     -0.533400000000000     -0.453420000000000
C      -3.589890000000000      2.845456000000000     -1.220654000000000
C      -4.331575000000000      1.935233000000000      0.824230000000000
C      -4.710885000000000      0.691205000000000     -1.229839000000000
C      -4.472808000000000      1.881114000000000     -0.612149000000000
C       3.415939000000000      1.213547000000000      0.991196000000000
C       2.971431000000000      0.673360000000000      2.225555000000000
Cl      5.310883000000000      1.407978000000000     -2.024678000000000
Cl      4.506756000000000      3.768124000000000      1.276217000000000
Cl      4.785579000000000     -2.851874000000000     -1.559557000000000
Cl      3.621083000000000     -4.211169000000000      2.042198000000000
