90

C       1.904389000000000     -1.357314000000000      3.987778000000000
C       2.158612000000000      2.850391000000000      2.325471000000000
C      -2.529901000000000     -1.487043000000000     -2.775899000000000
C      -0.950444000000000      2.982518000000000     -2.169396000000000
C       2.937808000000000     -1.605581000000000      3.053047000000000
C       1.428606000000000      2.241837000000000      3.363062000000000
C      -1.156202000000000     -1.494168000000000     -3.449374000000000
C      -2.069271000000000      2.085910000000000     -1.645957000000000
C       3.632453000000000     -0.456048000000000      2.460291000000000
C      -0.005907000000000      2.277930000000000      3.430887000000000
C      -2.595582000000000      2.108317000000000     -0.363745000000000
C      -0.382754000000000     -0.359954000000000     -3.723711000000000
C       3.237306000000000      0.828642000000000      2.870691000000000
C      -0.934553000000000      0.894061000000000     -3.303622000000000
C       2.142994000000000      1.042864000000000      3.766613000000000
C      -2.112432000000000      0.920097000000000     -2.418990000000000
C       1.473695000000000     -0.030831000000000      4.299749000000000
C      -2.765012000000000     -0.223641000000000     -1.973145000000000
C       0.019148000000000     -0.003625000000000      4.423668000000000
C      -3.339865000000000     -0.214354000000000     -0.677324000000000
C      -0.446931000000000     -1.332096000000000      4.256892000000000
C      -3.821163000000000     -1.545152000000000     -0.084996000000000
C       0.712381000000000     -2.183951000000000      4.043014000000000
C      -2.996084000000000     -2.697909000000000     -0.630167000000000
C       0.610719000000000     -3.308740000000000      3.265105000000000
C      -2.429542000000000     -2.690255000000000     -1.861532000000000
C       1.705374000000000     -3.678709000000000      2.406281000000000
C      -1.208905000000000     -3.401294000000000     -2.098864000000000
C       2.866065000000000     -2.854201000000000      2.302426000000000
C      -0.524170000000000     -2.726895000000000     -3.164690000000000
C       3.588100000000000     -2.958092000000000      1.103578000000000
C       0.843604000000000     -2.870086000000000     -3.314681000000000
C       4.370966000000000     -1.844118000000000      0.575900000000000
C       1.639607000000000     -1.758318000000000     -3.747151000000000
C       4.288668000000000     -0.560825000000000      1.160017000000000
C       1.068571000000000     -0.463224000000000     -3.854107000000000
C       4.381750000000000      0.612133000000000      0.281659000000000
C       1.900424000000000      0.691283000000000     -3.517123000000000
C       3.807722000000000      1.872269000000000      0.714390000000000
C       2.074731000000000      3.572383000000000      0.007816000000000
C       1.263933000000000      3.511325000000000     -1.127307000000000
C       1.270541000000000      1.931474000000000     -3.082400000000000
C       3.282927000000000      1.970331000000000      1.981199000000000
C       1.496273000000000      3.576175000000000      1.294726000000000
C      -0.148204000000000      3.550615000000000     -1.039313000000000
C      -0.161456000000000      1.999006000000000     -3.042646000000000
C       0.080809000000000      3.673160000000000      1.378564000000000
C      -0.725640000000000      3.682131000000000      0.207848000000000
C      -0.655081000000000      3.058063000000000      2.445805000000000
C      -2.149647000000000      3.242852000000000      0.551292000000000
C      -0.717866000000000      1.118257000000000      3.955349000000000
C      -3.243883000000000      0.939465000000000      0.131380000000000
C      -2.018130000000000      0.839102000000000      3.444989000000000
C      -3.618829000000000      0.872531000000000      1.617213000000000
C      -2.634054000000000      1.670817000000000      2.453202000000000
C      -1.972578000000000      2.755184000000000      1.972954000000000
C      -1.684368000000000     -1.620970000000000      3.606462000000000
C      -3.498097000000000     -1.628532000000000      1.391515000000000
C      -1.779286000000000     -2.804879000000000      2.766346000000000
C      -2.672284000000000     -2.771123000000000      1.665535000000000
C      -0.639725000000000     -3.646832000000000      2.618988000000000
C      -2.354908000000000     -3.413864000000000      0.428039000000000
C      -0.308226000000000     -4.255581000000000      1.380021000000000
C      -1.118979000000000     -4.099119000000000      0.230319000000000
C       1.141217000000000     -4.304729000000000      1.257566000000000
C      -0.494327000000000     -4.074460000000000     -1.081448000000000
C       1.782492000000000     -4.267951000000000      0.000734000000000
C       0.965725000000000     -4.190428000000000     -1.212634000000000
C       3.102296000000000     -3.723270000000000     -0.003252000000000
C       1.583231000000000     -3.674217000000000     -2.374643000000000
C       3.678353000000000     -3.164940000000000     -1.200485000000000
C       2.930661000000000     -3.146597000000000     -2.362941000000000
C       4.484389000000000     -2.022057000000000     -0.831618000000000
C       2.964551000000000     -1.971841000000000     -3.223300000000000
C       4.541214000000000     -0.902180000000000     -1.668055000000000
C       3.743850000000000     -0.884645000000000     -2.886562000000000
C       4.543731000000000      0.401133000000000     -1.114263000000000
C       3.233757000000000      0.448844000000000     -3.079121000000000
C       3.441404000000000      2.971146000000000     -0.280877000000000
C       1.964994000000000      2.768954000000000     -2.181950000000000
C       3.843882000000000      1.270812000000000     -2.075251000000000
C       3.235698000000000      2.428282000000000     -1.674358000000000
C      -2.489615000000000     -0.498902000000000      3.274883000000000
C      -3.409350000000000     -0.522606000000000      2.171486000000000
Cl     -5.619600000000000     -1.767431000000000     -0.422552000000000
Cl     -5.351052000000000      1.466713000000000      1.855137000000000
Cl     -3.328163000000000      4.657839000000000      0.442753000000000
Cl     -1.633660000000000      4.353689000000000     -3.221027000000000
Cl     -3.879193000000000     -1.683829000000000     -4.043388000000000
Cl      4.774126000000000      4.279793000000000     -0.260754000000000
