90

C       1.904362000000000      0.545430000000000     -3.087235000000000
C      -1.062734000000000      3.668643000000000     -1.257233000000000
C      -0.257478000000000     -3.011987000000000      3.500665000000000
C      -2.286590000000000      1.058768000000000      3.380534000000000
C       0.711352000000000     -0.061806000000000     -3.539306000000000
C       0.436526000000000      3.372770000000000     -1.275650000000000
C      -1.536131000000000     -3.419589000000000      2.969326000000000
C      -1.082111000000000      0.576227000000000      3.943381000000000
C      -0.551307000000000      0.681728000000000     -3.436195000000000
C       1.293632000000000      3.361165000000000     -0.187831000000000
C       0.168400000000000      1.228974000000000      3.728648000000000
C      -2.620855000000000     -2.512304000000000      2.862677000000000
C      -0.508035000000000      1.981494000000000     -2.901972000000000
C      -2.447387000000000     -1.266295000000000      3.515968000000000
C       0.707293000000000      2.549452000000000     -2.393457000000000
C      -1.175762000000000     -0.862655000000000      4.048728000000000
C       1.889403000000000      1.836770000000000     -2.467327000000000
C      -0.033838000000000     -1.678129000000000      3.960158000000000
C       2.825826000000000      1.894542000000000     -1.406161000000000
C       1.279717000000000     -1.041272000000000      3.763282000000000
C       3.741871000000000      0.669121000000000     -1.505027000000000
C       2.282356000000000     -1.818875000000000      3.159570000000000
C       2.987105000000000     -0.191915000000000     -2.510444000000000
C       2.003752000000000     -3.125234000000000      2.590477000000000
C       2.899714000000000     -1.547851000000000     -2.409874000000000
C       0.756659000000000     -3.712860000000000      2.773949000000000
C       1.747656000000000     -2.210118000000000     -2.906722000000000
C       0.149456000000000     -4.459690000000000      1.710699000000000
C       0.681223000000000     -1.505114000000000     -3.514920000000000
C      -1.271432000000000     -4.361491000000000      1.917530000000000
C      -0.570744000000000     -2.160397000000000     -3.541267000000000
C      -2.133928000000000     -4.464888000000000      0.851304000000000
C      -1.802605000000000     -1.427705000000000     -3.566055000000000
C      -3.327136000000000     -3.639887000000000      0.788792000000000
C      -1.821570000000000     -0.014583000000000     -3.369236000000000
C      -3.540455000000000     -2.592538000000000      1.718950000000000
C      -2.935797000000000      0.575072000000000     -2.644418000000000
C      -4.209904000000000     -1.376222000000000      1.247525000000000
C      -2.764885000000000      1.862258000000000     -1.997315000000000
C      -2.874478000000000      2.919840000000000      0.287336000000000
C      -3.200882000000000      2.256333000000000      1.479840000000000
C      -3.963659000000000     -0.108064000000000      1.931203000000000
C      -1.595259000000000      2.553130000000000     -2.175030000000000
C      -1.636509000000000      3.560682000000000      0.128037000000000
C      -2.296618000000000      2.223084000000000      2.567575000000000
C      -3.115736000000000     -0.089331000000000      3.059110000000000
C      -0.775515000000000      3.625577000000000      1.225028000000000
C      -1.088192000000000      2.943488000000000      2.425550000000000
C       0.736973000000000      3.835910000000000      1.141853000000000
C       0.128705000000000      2.470158000000000      3.040729000000000
C       2.517562000000000      2.595973000000000     -0.253572000000000
C       1.370964000000000      0.423278000000000      3.646483000000000
C       3.282331000000000      2.218827000000000      1.002941000000000
C       2.454745000000000      0.982982000000000      2.925826000000000
C       2.372472000000000      2.226261000000000      2.220903000000000
C       1.225783000000000      2.956034000000000      2.277068000000000
C       3.862949000000000     -0.030758000000000     -0.166339000000000
C       3.289729000000000     -1.223552000000000      2.324520000000000
C       3.746520000000000     -1.460859000000000     -0.059555000000000
C       3.490095000000000     -2.044324000000000      1.173338000000000
C       3.499806000000000     -2.338366000000000     -1.269851000000000
C       2.674348000000000     -3.255342000000000      1.351818000000000
C       2.413641000000000     -3.400228000000000     -1.032423000000000
C       2.040810000000000     -3.885789000000000      0.239679000000000
C       1.496635000000000     -3.378216000000000     -2.088820000000000
C       0.711665000000000     -4.479735000000000      0.406387000000000
C       0.193844000000000     -3.954207000000000     -1.991313000000000
C      -0.204591000000000     -4.553611000000000     -0.729071000000000
C      -0.783917000000000     -3.421837000000000     -2.871685000000000
C      -1.606519000000000     -4.642764000000000     -0.472144000000000
C      -2.181329000000000     -3.502636000000000     -2.566549000000000
C      -2.580832000000000     -4.097147000000000     -1.384071000000000
C      -2.816904000000000     -2.274155000000000     -3.018416000000000
C      -3.655151000000000     -3.495131000000000     -0.600682000000000
C      -3.856003000000000     -1.714887000000000     -2.292127000000000
C      -4.277956000000000     -2.345016000000000     -1.044772000000000
C      -3.954924000000000     -0.298899000000000     -2.143485000000000
C      -4.600922000000000     -1.303370000000000     -0.114255000000000
C      -3.677299000000000      2.311205000000000     -0.863388000000000
C      -4.055209000000000      1.112320000000000      1.186095000000000
C      -4.547994000000000     -0.054569000000000     -0.849325000000000
C      -4.335729000000000      1.130011000000000     -0.184350000000000
C       3.719232000000000      0.752842000000000      0.969122000000000
C       3.376336000000000      0.147384000000000      2.209153000000000
Cl      5.413244000000000      1.136435000000000     -2.144442000000000
Cl      4.734043000000000      3.348009000000000      1.225433000000000
Cl      1.174546000000000      5.612580000000000      1.417879000000000
Cl     -1.395819000000000      5.332769000000000     -2.000278000000000
Cl     -4.939950000000000      3.505605000000000     -1.506994000000000
Cl      5.090890000000000     -3.155939000000000     -1.778500000000000
