92

C       1.403972000000000      1.400159000000000      3.282096000000000
C       3.501762000000000     -2.350874000000000      1.843833000000000
C      -1.708825000000000     -0.049077000000000     -3.663014000000000
C       1.500868000000000     -3.208556000000000     -2.953379000000000
C       0.417308000000000      0.450496000000000      3.661317000000000
C       3.866596000000000     -0.929406000000000      1.922751000000000
C      -2.532831000000000     -1.110850000000000     -3.146955000000000
C       1.469602000000000     -1.928181000000000     -3.599255000000000
C       0.771038000000000     -0.970780000000000      3.701580000000000
C       4.257601000000000     -0.168500000000000      0.824208000000000
C       2.425474000000000     -0.900192000000000     -3.323421000000000
C      -2.020834000000000     -2.417753000000000     -2.917310000000000
C       2.096727000000000     -1.331820000000000      3.385251000000000
C      -0.709836000000000     -2.659457000000000     -3.394594000000000
C       3.058420000000000     -0.352380000000000      2.939060000000000
C       0.113044000000000     -1.606751000000000     -3.906382000000000
C       2.714538000000000      0.979463000000000      2.866192000000000
C      -0.334773000000000     -0.259466000000000     -3.951519000000000
C       3.169646000000000      1.789180000000000      1.793206000000000
C       0.609097000000000      0.810613000000000     -3.708684000000000
C       2.257186000000000      3.015502000000000      1.692866000000000
C       0.067411000000000      2.028381000000000     -3.233154000000000
C       1.096397000000000      2.597499000000000      2.586469000000000
C      -1.314812000000000      2.206830000000000     -2.925935000000000
C      -0.212655000000000      2.898100000000000      2.294354000000000
C      -2.187217000000000      1.184035000000000     -3.136776000000000
C      -1.228212000000000      2.027196000000000      2.725319000000000
C      -3.425889000000000      0.967420000000000     -2.287560000000000
C      -0.954334000000000      0.836618000000000      3.440991000000000
C      -3.540823000000000     -0.541497000000000     -2.319336000000000
C      -1.940582000000000     -0.173445000000000      3.394659000000000
C      -4.036815000000000     -1.263558000000000     -1.280934000000000
C      -1.613271000000000     -1.525958000000000      3.484019000000000
C      -3.567427000000000     -2.594712000000000     -1.038738000000000
C      -0.254129000000000     -1.990199000000000      3.539407000000000
C      -2.519277000000000     -3.189348000000000     -1.796298000000000
C       0.055709000000000     -3.280992000000000      2.958470000000000
C      -1.644204000000000     -4.170363000000000     -1.147731000000000
C       1.410836000000000     -3.552112000000000      2.492879000000000
C       2.661741000000000     -4.106917000000000      0.409275000000000
C       2.118133000000000     -4.339094000000000     -0.897725000000000
C      -0.277448000000000     -4.374011000000000     -1.657118000000000
C       2.415551000000000     -2.575274000000000      2.746333000000000
C       3.606535000000000     -3.066306000000000      0.632255000000000
C       2.483525000000000     -3.503945000000000     -1.974871000000000
C       0.141045000000000     -3.650660000000000     -2.795895000000000
C       4.091094000000000     -2.335046000000000     -0.499147000000000
C       3.506278000000000     -2.519270000000000     -1.748390000000000
C       4.706832000000000     -0.935078000000000     -0.411825000000000
C       3.497700000000000     -1.248705000000000     -2.466142000000000
C       3.894810000000000      1.219449000000000      0.754225000000000
C       2.005543000000000      0.485810000000000     -3.385895000000000
C       3.918132000000000      1.972860000000000     -0.563422000000000
C       2.759242000000000      1.409060000000000     -2.619657000000000
C       3.821156000000000      1.023360000000000     -1.752571000000000
C       4.180396000000000     -0.291610000000000     -1.678349000000000
C       1.798108000000000      3.240830000000000      0.265807000000000
C       0.816266000000000      2.865438000000000     -2.335652000000000
C       0.423939000000000      3.542123000000000     -0.043327000000000
C      -0.034310000000000      3.403759000000000     -1.344092000000000
C      -0.631475000000000      3.634100000000000      1.036324000000000
C      -1.489325000000000      3.179660000000000     -1.773716000000000
C      -1.885459000000000      2.842803000000000      0.646853000000000
C      -2.289370000000000      2.541660000000000     -0.647394000000000
C      -2.287728000000000      2.031071000000000      1.714724000000000
C      -3.182338000000000      1.457249000000000     -0.855971000000000
C      -3.178646000000000      0.972523000000000      1.540049000000000
C      -3.651561000000000      0.690847000000000      0.241538000000000
C      -3.300042000000000      0.015592000000000      2.712071000000000
C      -4.470448000000000     -0.589971000000000      0.008802000000000
C      -3.613343000000000     -1.386548000000000      2.263155000000000
C      -4.131283000000000     -1.661173000000000      1.031506000000000
C      -2.667163000000000     -2.293051000000000      2.853689000000000
C      -3.728524000000000     -2.869000000000000      0.355673000000000
C      -2.356953000000000     -3.498593000000000      2.267029000000000
C      -2.905720000000000     -3.801587000000000      0.969129000000000
C      -1.009908000000000     -4.015487000000000      2.332913000000000
C      -1.888590000000000     -4.477037000000000      0.212338000000000
C       1.620604000000000     -4.384028000000000      1.362625000000000
C       0.753548000000000     -4.807315000000000     -0.759286000000000
C      -0.787565000000000     -4.734890000000000      1.126492000000000
C       0.498269000000000     -4.906897000000000      0.632178000000000
C       2.645393000000000      2.807730000000000     -0.743097000000000
C       2.131846000000000      2.566365000000000     -2.037523000000000
Cl      3.089923000000000      4.531014000000000      2.349337000000000
Cl      5.428743000000000      3.033960000000000     -0.659482000000000
Cl     -1.041868000000000      5.398230000000000      1.395612000000000
Cl     -2.280116000000000      4.764858000000000     -2.292379000000000
Cl     -4.903815000000000      1.805391000000000     -3.002329000000000
Cl     -6.267168000000000     -0.167713000000000      0.034813000000000
Cl      6.557732000000000     -1.039611000000000     -0.415884000000000
Cl     -4.552244000000000      0.663497000000000      3.923769000000000
