62

C       0.207853703288472     -0.073839435146133     -3.773798302033050
C       0.267946857013896      1.341434774772365     -3.257929424375922
C      -1.022945322516717      1.769812627451980     -2.832189242308649
C      -1.160885762948249     -0.499789121583021     -3.308045460794709
C      -1.908447262302785      0.630318251069096     -2.871254437430573
C      -1.402474295595209     -1.725889938380268     -2.735487269243580
C      -0.306106641248512     -2.606348251953587     -2.353001876276704
C       1.272578776210407     -0.914268639617931     -3.152065778168646
C       1.000214199827362     -2.172570304447382     -2.568709942171815
C       2.408027822546457     -0.354886849873828     -2.520739497889146
C       1.379687793892936      1.863502197289297     -2.643245517212203
C       2.498311052791719      1.008656198120331     -2.261641062965985
C       1.243847992281278      2.848419443753638     -1.608922711907387
C      -1.173750382577187      2.723992907894448     -1.833284891222982
C      -0.010269615436478      3.284361839766992     -1.203783719870539
C      -2.192294486321484      2.583109169834320     -0.835609152457926
C      -2.897886271907629      0.499846398152070     -1.903354398992028
C      -3.043584295081314      1.492789641036694     -0.880095579283552
C      -2.418400894762794     -1.868714925739023     -1.729627351049512
C      -3.165440505764063     -0.779059009999261     -1.323641450161659
C      -0.647169610794895     -3.267162939940222     -1.137801038544715
C      -1.964842216001782     -2.820359950145419     -0.748993343262644
C       0.313479983658623     -3.511807843826615     -0.160382972728641
C       2.011893129992926     -2.433115475119664     -1.555439189036130
C       2.886392513031983     -1.302606834703941     -1.523613879449951
C       1.672735886870433     -3.080013080703835     -0.383076203005716
C       3.407812543174227     -0.852107151500076     -0.329407887046567
C       3.031488838750334      1.466593271605174     -1.021350509357625
C       2.256534836329998      2.614989570683452     -0.612166462538341
C       3.486955773481808      0.563841222600569     -0.061723754367934
C       1.970925907427844      2.798945689515219      0.726254264607328
C      -0.317277847280815      3.491583962381274      0.173053839176223
C      -1.682508228083837      3.059829834124686      0.424895090041348
C       0.650333254084441      3.246987692058818      1.142413585884188
C      -2.023049336108546      2.433950105976455      1.596527331256119
C      -3.395360864659045      0.836989054616998      0.345873810798678
C      -3.466087062472491     -0.567680353578992      0.070363064989214
C      -2.878857339957015      1.293545684025112      1.551374363770457
C      -2.257537867854662     -2.630781884289080      0.587121643065001
C      -3.019216484416627     -1.480104432662435      1.010556383496710
C       0.002738834028848     -3.302582594247551      1.221620003496966
C      -1.261051870337522     -2.875324790367045      1.597012807601157
C       2.204672704075246     -2.619202121946484      0.870177009730247
C       3.056082369801434     -1.520691055839518      0.900082346318855
C       1.167624172216496     -2.739338042027184      1.863520334846097
C       3.172815222467751      0.770025254814333      1.322469550557686
C       2.433856147031260      1.871065560663890      1.710580138834785
C       2.913169176520494     -0.521856437437823      1.918968708178499
C       0.322544588002582      2.599763088614324      2.356895744446126
C      -1.087390965958271      2.340747969893060      2.774793843398708
C       1.387767879079795      1.739694449913238      2.712086280682024
C      -2.414317523174789      0.345468917875750      2.531748666669072
C      -2.487914227001310     -1.016632964987840      2.257300509101427
C      -1.402498994322920     -1.876529956436138      2.618784669655579
C      -1.275642351880935      0.901832750284050      3.184533000683882
C       1.021938240269875     -1.778697546916756      2.845063336448648
C       1.911758810978289     -0.638721424863858      2.873877021016207
C       1.152808844539972      0.493278508507723      3.289388821825212
C      -0.287804422300414     -1.327913821688795      3.231911711899338
C      -0.225693520954773      0.080156840323555      3.512763227621599
Cl      0.381870875215155     -0.158309432189406     -5.594998912462844
Cl     -1.534885373101955      3.506306388054528      4.114602784252882
