62

C       0.208200349040125     -0.068765504147437     -3.822197836595714
C       0.284146908775998      1.319742496078238     -3.243528858862191
C      -1.013784012979612      1.758879311317280     -2.828010323024848
C      -1.131532873191071     -0.502771078624762     -3.288031141871671
C      -1.888120173822361      0.633279074424438     -2.855495399898289
C      -1.386466166248753     -1.708679169395733     -2.714336185401818
C      -0.272558259151938     -2.582805383913932     -2.337225541736314
C       1.400678104283182     -1.004889211698480     -3.419256219745730
C       1.006346162677697     -2.181684923083357     -2.565535671018685
C       2.422630848538597     -0.358392463316855     -2.521014517610976
C       1.375441300223319      1.846937261757215     -2.627514725946548
C       2.489024014953969      0.972391930609835     -2.250414447357874
C       1.234163565734869      2.827253928385447     -1.592120800245157
C      -1.162802548024910      2.721282880797487     -1.840921212358384
C      -0.012776710826146      3.278735303625398     -1.203938631095418
C      -2.190220640968552      2.597109826508135     -0.848755226306599
C      -2.880516507220943      0.509937476348245     -1.894918026913712
C      -3.038149678395521      1.505505629415400     -0.875410076679965
C      -2.395437903734723     -1.845411354358431     -1.706218352276038
C      -3.150707658164502     -0.760964677618897     -1.302580260612981
C      -0.631382045055191     -3.229348233042574     -1.110783782641384
C      -1.941699335913917     -2.790609080437781     -0.727750573526685
C       0.313085779463138     -3.480974342900391     -0.133620136182827
C       1.985100343246038     -2.407257898822039     -1.545938485208491
C       2.859384182596579     -1.281725044937901     -1.518455205771188
C       1.654675057033584     -3.050857172421425     -0.363221438610139
C       3.372949087868642     -0.838790814630807     -0.309206842348320
C       2.997372850762555      1.442227408267736     -0.996712813888094
C       2.238871486135630      2.591361850624024     -0.596333203372674
C       3.451872797173344      0.559827844368449     -0.034951498481408
C       1.950610781500965      2.799207394604123      0.743684484550387
C      -0.319284440328949      3.490336689873335      0.183605291058674
C      -1.674902253569372      3.074588851653690      0.412310711916674
C       0.647962089595260      3.258127461415714      1.144974558194748
C      -2.009435727191880      2.433754854683503      1.589127911340525
C      -3.402824948619907      0.850100848547208      0.357993119811021
C      -3.464378273025373     -0.558584837912763      0.084738447017478
C      -2.892816411679705      1.296510952993144      1.561358572308301
C      -2.246089502309666     -2.603528208355662      0.611760143770686
C      -3.022670029920511     -1.467360116899979      1.029587238563490
C       0.005418679757856     -3.282509048205672      1.255544254199717
C      -1.256722835143814     -2.853467148685636      1.625522315271832
C       2.186414217031853     -2.595830204895205      0.887687307106093
C       3.034326727127379     -1.504247216470973      0.914341627285924
C       1.167552641794408     -2.737597932848757      1.900497730277707
C       3.150599770877500      0.766524600883746      1.354413986957151
C       2.413730339684216      1.871789648432755      1.740904018488838
C       2.895365861739379     -0.513250978566842      1.954811720036236
C       0.299133334774010      2.597435998767515      2.370497681831805
C      -1.006424522193086      2.190912972327937      2.588724536211399
C       1.390881861556244      1.740371300656050      2.739187096912770
C      -2.432856845145408      0.354556687533535      2.543884166823466
C      -2.498120231405693     -1.003684223498066      2.282565360063345
C      -1.406351424071813     -1.860722594832371      2.651255351539045
C      -1.266904661823026      0.906085533434205      3.179626170069312
C       1.024068656828668     -1.778339257306758      2.883905052806177
C       1.907473135691804     -0.641064700387652      2.911675193560722
C       1.140693562607896      0.505550859562960      3.314067538656118
C      -0.285906601321032     -1.331021320553264      3.269221882939261
C      -0.215253519734711      0.080510810579328      3.535113065329369
Cl      0.065407303355033      0.086276932319170     -5.629243910114879
Cl      2.272642623129967     -1.646503544486338     -4.881478817400513
