75

C      -3.421713000000000      1.383849000000000     -0.235304000000000
C      -3.753425000000000     -0.068278000000000     -0.762606000000000
C      -3.727935000000000     -1.041782000000000      0.516456000000000
C      -2.784303000000000      1.074019000000000      1.064741000000000
C      -2.962457000000000     -0.209283000000000      1.499584000000000
C      -1.544944000000000      1.748537000000000      1.270633000000000
C      -2.261323000000000      2.228643000000000     -0.992857000000000
C      -1.178384000000000      2.399938000000000      0.093673000000000
C      -1.547570000000000      1.527188000000000     -2.142609000000000
C      -2.637396000000000     -0.610843000000000     -1.583408000000000
C      -1.849309000000000      0.167384000000000     -2.484651000000000
C      -2.857149000000000     -2.323057000000000      0.069199000000000
C      -2.264512000000000     -1.878824000000000     -1.226850000000000
C      -1.689317000000000     -2.714289000000000      0.982505000000000
C      -2.063798000000000     -0.732909000000000      2.406457000000000
C      -1.496868000000000     -2.026164000000000      2.186106000000000
C      -0.598569000000000      1.288398000000000      2.195243000000000
C      -1.057658000000000      0.162636000000000      3.121787000000000
C       0.748085000000000      1.623664000000000      1.999095000000000
C       0.165791000000000      2.658203000000000     -0.161276000000000
C       1.133685000000000      2.327123000000000      0.822890000000000
C      -0.317198000000000      2.040928000000000     -2.516404000000000
C       0.536456000000000      2.952118000000000     -1.609504000000000
C       0.555851000000000      1.314842000000000     -3.376696000000000
C      -0.953496000000000     -0.565357000000000     -3.277446000000000
C       0.223954000000000      0.035979000000000     -3.818061000000000
C      -1.164543000000000     -2.552184000000000     -1.830826000000000
C      -0.649023000000000     -1.946793000000000     -2.985273000000000
C      -0.568169000000000     -3.445489000000000      0.423421000000000
C      -0.336347000000000     -3.442248000000000     -1.032117000000000
C       0.558373000000000     -3.684036000000000      1.253664000000000
C      -0.255580000000000     -2.089202000000000      2.904178000000000
C       0.080400000000000     -0.783349000000000      3.389143000000000
C       0.725838000000000     -2.970783000000000      2.496814000000000
C       1.790593000000000      1.031935000000000      2.957294000000000
C       1.380514000000000     -0.376828000000000      3.378380000000000
C       3.105878000000000      0.772621000000000      2.252388000000000
C       2.615763000000000      2.544686000000000      0.513313000000000
C       3.486706000000000      1.471559000000000      1.145505000000000
C       1.938167000000000      2.480342000000000     -1.925100000000000
C       1.934770000000000      1.623066000000000     -3.067250000000000
C       2.898355000000000      2.336769000000000     -0.967235000000000
C       2.932956000000000      0.665370000000000     -3.250313000000000
C       1.249331000000000     -0.978786000000000     -3.946398000000000
C       0.689202000000000     -2.210803000000000     -3.435837000000000
C       2.579976000000000     -0.672343000000000     -3.695709000000000
C       0.949841000000000     -3.736873000000000     -1.528483000000000
C       1.471736000000000     -3.103397000000000     -2.726084000000000
C       1.880879000000000     -3.902474000000000      0.720447000000000
C       2.076276000000000     -3.950319000000000     -0.646888000000000
C       2.109297000000000     -2.614451000000000      2.648760000000000
C       2.416365000000000     -1.308160000000000      3.044589000000000
C       3.495344000000000     -0.599119000000000      2.401090000000000
C       2.846722000000000     -3.228300000000000      1.569369000000000
C       4.275159000000000     -1.233409000000000      1.431719000000000
C       3.933526000000000     -2.576765000000000      0.997315000000000
C       4.303957000000000      0.842974000000000      0.150996000000000
C       3.938444000000000      1.368511000000000     -1.142748000000000
C       3.976168000000000      0.545814000000000     -2.271289000000000
C       4.704118000000000     -0.488372000000000      0.282187000000000
C       3.417722000000000     -1.616647000000000     -2.983719000000000
C       2.879798000000000     -2.826329000000000     -2.530600000000000
C       3.254854000000000     -3.350748000000000     -1.239372000000000
C       4.155184000000000     -2.649479000000000     -0.432856000000000
C       4.305394000000000     -0.862719000000000     -2.121338000000000
C       4.663202000000000     -1.367105000000000     -0.875390000000000
Cl     -4.928840000000000      2.333050000000000      0.100635000000000
Cl     -5.241080000000000     -0.178348000000000     -1.781923000000000
Cl     -5.340229000000000     -1.427167000000000      1.210454000000000
Cl     -3.879594000000000     -3.828774000000000     -0.200468000000000
Cl     -2.869797000000000      3.823946000000000     -1.623714000000000
Cl      0.420977000000000      4.752055000000000     -1.984135000000000
Cl      3.102249000000000      4.237004000000000      1.077726000000000
Cl      1.997637000000000      2.170347000000000      4.391729000000000
Cl     -1.770847000000000      0.866545000000000      4.680362000000000
