76

C       3.684265000000000      0.533824000000000     -0.725678000000000
C       3.653309000000000     -0.733973000000000      0.276614000000000
C       2.941265000000000     -1.900231000000000     -0.606590000000000
C       2.847740000000000      0.086325000000000     -1.862141000000000
C       2.557894000000000     -1.255444000000000     -1.899413000000000
C       2.003458000000000      1.063684000000000     -2.373694000000000
C       2.993716000000000      1.914542000000000     -0.319016000000000
C       1.998285000000000      2.179803000000000     -1.485804000000000
C       2.147468000000000      1.886409000000000      0.939426000000000
C       2.679731000000000     -0.584214000000000      1.553144000000000
C       2.022031000000000      0.767966000000000      1.795373000000000
C       1.620659000000000     -2.177778000000000      0.073700000000000
C       1.520846000000000     -1.541552000000000      1.289552000000000
C       0.474441000000000     -2.653690000000000     -0.588594000000000
C       1.445624000000000     -1.659011000000000     -2.613045000000000
C       0.539074000000000     -2.786255000000000     -2.121676000000000
C       0.880308000000000      0.699374000000000     -3.148302000000000
C       0.684405000000000     -0.707659000000000     -3.321861000000000
C      -0.249784000000000      1.600898000000000     -3.184212000000000
C       0.898923000000000      2.988644000000000     -1.409155000000000
C      -0.239664000000000      2.772720000000000     -2.307140000000000
C       1.243323000000000      2.947274000000000      1.053182000000000
C       0.751376000000000      3.799179000000000     -0.131947000000000
C       0.262934000000000      2.958271000000000      2.051418000000000
C       0.978802000000000      0.743953000000000      2.732000000000000
C       0.125767000000000      1.844016000000000      2.889976000000000
C       0.301037000000000     -1.500454000000000      1.976037000000000
C       0.208334000000000     -0.528781000000000      3.137224000000000
C      -0.751567000000000     -2.666198000000000      0.101146000000000
C      -0.830102000000000     -2.117847000000000      1.411472000000000
C      -2.027604000000000     -3.097458000000000     -0.644051000000000
C      -0.792050000000000     -2.400671000000000     -2.725415000000000
C      -0.639329000000000     -1.227592000000000     -3.530033000000000
C      -1.975565000000000     -2.616804000000000     -2.088365000000000
C      -1.492485000000000      1.076658000000000     -3.623298000000000
C      -1.689689000000000     -0.360931000000000     -3.749752000000000
C      -2.727264000000000      1.636132000000000     -3.188141000000000
C      -1.481009000000000      3.363505000000000     -1.981444000000000
C      -2.715268000000000      2.772132000000000     -2.378896000000000
C      -0.689689000000000      4.052373000000000      0.252762000000000
C      -0.917940000000000      3.676856000000000      1.608356000000000
C      -1.705387000000000      3.971206000000000     -0.659033000000000
C      -2.182631000000000      3.292817000000000      2.043575000000000
C      -1.195891000000000      1.420740000000000      3.305992000000000
C      -1.195718000000000     -0.004792000000000      3.312027000000000
C      -2.323184000000000      2.134170000000000      2.915332000000000
C      -2.180439000000000     -2.007839000000000      2.131798000000000
C      -2.290972000000000     -0.696876000000000      2.895835000000000
C      -3.251851000000000     -2.365930000000000     -0.123909000000000
C      -3.328920000000000     -1.884292000000000      1.148039000000000
C      -3.103408000000000     -1.781589000000000     -2.373244000000000
C      -2.988502000000000     -0.684001000000000     -3.236811000000000
C      -3.660665000000000      0.556485000000000     -2.919639000000000
C      -3.915711000000000     -1.672544000000000     -1.188922000000000
C      -4.507208000000000      0.634983000000000     -1.821335000000000
C      -4.648736000000000     -0.508110000000000     -0.941049000000000
C      -3.673387000000000      2.893658000000000     -1.290038000000000
C      -3.039520000000000      3.630103000000000     -0.226534000000000
C      -3.278663000000000      3.281603000000000      1.109932000000000
C      -4.530321000000000      1.833165000000000     -1.000041000000000
C      -3.500471000000000      1.417013000000000      2.516399000000000
C      -3.466213000000000      0.018357000000000      2.497331000000000
C      -4.101766000000000     -0.709832000000000      1.428503000000000
C      -4.759898000000000     -0.021177000000000      0.405904000000000
C      -4.112735000000000      2.135683000000000      1.409753000000000
C      -4.725436000000000      1.428842000000000      0.378912000000000
Cl      5.329764000000000      0.808205000000000     -1.465470000000000
Cl      5.306885000000000     -1.177482000000000      0.767602000000000
Cl      3.889316000000000     -3.427877000000000     -0.803734000000000
Cl      1.041482000000000     -4.465276000000000     -2.652681000000000
Cl     -2.214956000000000     -4.924626000000000     -0.501014000000000
Cl     -2.375621000000000     -3.473780000000000      3.237117000000000
Cl      0.685788000000000     -1.311424000000000      4.737932000000000
Cl      3.529355000000000     -1.037832000000000      3.115875000000000
Cl      4.200041000000000      3.266896000000000     -0.094238000000000
Cl      1.580286000000000      5.451488000000000     -0.289330000000000
