62

C      -1.324392841217378     -0.001433621760976      3.604445406466385
C      -0.394481041245840     -1.275486844839389      3.598289457379916
C       0.966417190380729     -0.720511242415463      3.275749808183112
C       0.975396411181728      0.700004195452110      3.266830003216549
C      -0.380436562870850      1.127579986549498      3.286945817136471
C       2.320982526672761     -2.572099995608565      0.566728103453133
C       3.160265954795892     -1.402774975564517      0.567419382387992
C       2.898961987038549     -0.681247360500425      1.782138431679743
C       1.914478195475170     -1.389866962362987      2.546266516509766
C       1.561170843759815     -2.570075412849913      1.776365391773262
C       3.177811867709318      1.418080616265767      0.557721171514641
C       2.331667150660999      2.580893876839156      0.560894247292826
C       1.572441016655838      2.557296629078620      1.784690011863451
C       1.933650622257201      1.397361923769798      2.530572912797225
C       2.925315834592922      0.699506689127990      1.779898540527158
C      -0.358324567971179      3.430790579623620      0.579841813067813
C      -1.729038932900333      2.992652939879471      0.579604619985390
C      -1.957944791412703      2.264618547086865      1.786919756964125
C      -0.725906279051811      2.235208454335450      2.556336619666629
C       0.250065966599816      2.955519275054878      1.791780835696378
C      -3.372927011676242      0.719925880839144      0.573634597588550
C      -3.371310328832447     -0.710317168016053      0.574960628502395
C      -2.746445909197289     -1.128458836476269      1.820866011515796
C      -2.391205889683011     -0.020231871942947      2.563157988093510
C      -2.764378336828920      1.152400850273597      1.807188286307664
C      -1.709095034125523     -2.996115752776069      0.570656349334399
C      -0.348227857197492     -3.436919359794096      0.565226741164739
C       0.253988258961528     -2.994181236569787      1.798156323718928
C      -0.745996985993393     -2.281715180472582      2.557256533444594
C      -1.911900846380966     -2.275847781965014      1.818407069873952
C      -0.233575668122785     -3.004733493261753     -1.833737237926500
C       0.752536138150650     -2.279817257008193     -2.592745164194177
C       1.980068120368343     -2.281052612338755     -1.839630982691694
C       1.746644266774680     -3.002896926790602     -0.620282379408182
C       0.377666024324790     -3.447585502760087     -0.611804545382782
C       2.789987336501839     -1.156646406946815     -1.842192098191961
C       2.409670326470728      0.008231970947974     -2.594088045504148
C       2.787529889979785      1.172297941178814     -1.837387982631143
C       3.399275896333675      0.725474862281618     -0.616753931702912
C       3.390658877526657     -0.715801771074289     -0.611776114066129
C       1.971715044234648      2.293439301323070     -1.834172327992799
C       0.745797423034442      2.294426823612246     -2.587315212981299
C      -0.243682978719215      3.012042962858209     -1.830767277541552
C       0.363799416102991      3.443569563080342     -0.600597162601481
C       1.737956233093363      3.008819767783144     -0.610473213138545
C      -1.562930853544759      2.587718528301547     -1.827774237051126
C      -1.941166173117358      1.421809422403881     -2.583933659847320
C      -2.933386937221412      0.703860439081065     -1.826348506401922
C      -3.164120913273634      1.418149280987049     -0.601793543722203
C      -2.319514370200572      2.583978598529366     -0.607597496619608
C      -2.925836129172707     -0.684449123996682     -1.814528660488479
C      -1.934938812247129     -1.404867046414032     -2.570128415700652
C      -1.552168513024607     -2.571161170688551     -1.818086597993813
C      -2.298804417682056     -2.574337331762799     -0.592765112980657
C      -3.154743801017741     -1.398015613325972     -0.590636457906774
C      -0.986290999332501     -0.712602402890140     -3.298667717693508
C      -0.986823872986988      0.726986019123724     -3.303571692874177
C       0.381830622459041      1.171210477423081     -3.311943380964945
C       1.227010431754222      0.009821336493438     -3.315633830894887
C       0.383378982573140     -1.156066074884794     -3.308717930471961
Cl     -2.123648372610038      0.276874099991971      5.210102210115247
Cl     -0.347287588553340     -2.123334081616674      5.203442984665576
