68

C       0.168953433707443     -0.085466278877042     -3.854963137746093
C       0.258209438862903      1.446328115349068     -3.522119261467836
C      -1.046970497515983      1.758251708458603     -2.838850078495565
C      -1.164568423103438     -0.511892068335160     -3.275786105964365
C      -1.904595801080393      0.626695109176940     -2.823073005069300
C      -1.423395044582928     -1.720231820212563     -2.708892492274518
C      -0.362663879567355     -2.772228899723014     -2.495372097739906
C       1.205947867104348     -0.887398563073848     -3.144042831752766
C       0.918375980821978     -2.024991467039635     -2.487338178568800
C       2.567270017380709     -0.403869263806506     -2.704651350797258
C       1.346847147277566      1.747999215130800     -2.554860163004990
C       2.385033963461215      0.963309310946750     -2.213590718449802
C       1.224346538445402      2.783588515612926     -1.510663012620017
C      -1.174140251664795      2.697628490899704     -1.843758477957000
C      -0.019730286084322      3.274268630430380     -1.185285120047157
C      -2.188337693956144      2.578712083996856     -0.826942081788568
C      -2.888718257184985      0.507625293319676     -1.854818445850980
C      -3.048261765121441      1.500982395671051     -0.834518520778162
C      -2.412575479230034     -1.845693614794333     -1.677154225998277
C      -3.157347598975806     -0.756062013257581     -1.264747504582344
C      -0.670065195793000     -3.262494811174991     -1.099168326978660
C      -1.960814521092668     -2.782629957094028     -0.694733937497865
C       0.279904551051902     -3.495917705440529     -0.157673822169373
C       1.933817085459212     -2.277002295246232     -1.472760099083136
C       2.850729770386512     -1.297317889732506     -1.520519593877622
C       1.755246242231639     -3.280510799540405     -0.392520686239983
C       3.659578810772361     -0.921512731805473     -0.332022253293307
C       2.968660438394483      1.416382446067647     -0.941745140081823
C       2.211089237033241      2.554700797514749     -0.549666183507791
C       3.485087475201172      0.540588179446586     -0.039508596266231
C       2.076831345892355      3.035494704900251      0.845551239818747
C      -0.321664481086171      3.504869443673142      0.212143200525880
C      -1.669670802127637      3.064566208746024      0.426602650643811
C       0.629461156057409      3.296125125631044      1.190586709334689
C      -2.031598621413973      2.438472371214554      1.608696842411288
C      -3.430346987230543      0.855225645837575      0.393495673311326
C      -3.498770359878960     -0.553948803217568      0.119692969986232
C      -2.925400327995773      1.309954097862843      1.598316649022860
C      -2.276392125308287     -2.589599717909623      0.636578684133009
C      -3.056561772840620     -1.459346161962059      1.064260482808398
C      -0.025168934746016     -3.258303889233731      1.226305104223287
C      -1.277493783822908     -2.831036734190944      1.628865998078441
C       2.189096604281927     -2.599556173042235      0.882742197305890
C       3.021143995247855     -1.529163193981224      0.900260478384450
C       1.137992878036050     -2.706779720604170      1.850382324264778
C       3.111839185537369      0.772299657243969      1.335668412699406
C       2.403833678134791      1.885778329537997      1.758982147896422
C       2.833228012055824     -0.512777839098118      1.895542994156273
C       0.272782917458145      2.620693929598309      2.386167595667719
C      -1.034792013626870      2.203006811776635      2.614420428855266
C       1.377802195864323      1.745425285904756      2.731259445000751
C      -2.476755523033690      0.366536507283488      2.585655896081912
C      -2.547309756251040     -0.989988132637282      2.324251323000946
C      -1.439826178477936     -1.849950180860841      2.665665025994151
C      -1.302143843192686      0.925760392225380      3.208069192772492
C       0.978697844588645     -1.754101500107199      2.843146016495067
C       1.856520632758676     -0.634396853472987      2.867812387300323
C       1.104240953162624      0.507006916623772      3.298515235623099
C      -0.319816489769000     -1.318188211657178      3.271127607526839
C      -0.243851226036436      0.096265547265577      3.548306338868925
Cl      0.311936558463882     -0.470503944120981     -5.600065378555552
Cl     -0.354426463875675     -4.108964034235313     -3.698021431004367
Cl      0.517382616235074      2.486491218073969     -4.967024317308219
Cl      2.650902404344323     -4.799928187408872     -0.752599408690164
Cl      5.365899759682329     -1.431973594971524     -0.622935359736827
Cl      3.830667264569063     -0.376646961850017     -3.984551395212587
Cl      3.117601983597786      4.510191362919079      1.104121958466958
Cl      2.884124688937785     -3.401054091053870     -2.526099084933577
