96

C      -1.696730000000000     -3.721288000000000     -2.530981000000000
C       2.761501000000000     -3.230436000000000     -1.285911000000000
C      -1.882250000000000      2.586736000000000      2.415223000000000
C       2.569864000000000      1.196137000000000      2.424854000000000
C      -1.392152000000000     -2.673529000000000     -3.433454000000000
C       1.614873000000000     -4.158161000000000     -0.971926000000000
C      -1.430372000000000      3.700905000000000      1.470935000000000
C       1.365251000000000      1.023643000000000      3.311204000000000
C       0.016349000000000     -2.323680000000000     -3.646373000000000
C       1.199273000000000     -4.407644000000000      0.299870000000000
C       0.943689000000000     -0.191092000000000      3.680554000000000
C      -0.002933000000000      3.455318000000000      0.999742000000000
C       0.996605000000000     -3.061984000000000     -2.947006000000000
C       0.846671000000000      2.789370000000000      1.879502000000000
C       0.656805000000000     -4.119547000000000     -2.044357000000000
C       0.430736000000000      2.206773000000000      3.218572000000000
C      -0.677358000000000     -4.436047000000000     -1.832435000000000
C      -1.036891000000000      1.829618000000000      3.195931000000000
C      -1.131825000000000     -4.699152000000000     -0.483351000000000
C      -1.451732000000000      0.502348000000000      3.581667000000000
C      -2.433330000000000     -4.149043000000000     -0.324490000000000
C      -2.713424000000000      0.025247000000000      3.133494000000000
C      -2.840340000000000     -3.649819000000000     -1.641583000000000
C      -3.567139000000000      0.832011000000000      2.345111000000000
C      -3.739553000000000     -2.635228000000000     -1.764406000000000
C      -3.131353000000000      2.066678000000000      1.953144000000000
C      -3.535396000000000     -1.631961000000000     -2.748825000000000
C      -3.382032000000000      2.564846000000000      0.606425000000000
C      -2.398683000000000     -1.647826000000000     -3.608603000000000
C      -2.396784000000000      3.526288000000000      0.317566000000000
C      -2.024909000000000     -0.406797000000000     -4.164013000000000
C      -2.011626000000000      3.744881000000000     -0.981383000000000
C      -0.642590000000000     -0.112481000000000     -4.492645000000000
C      -0.605247000000000      4.187370000000000     -1.355361000000000
C       0.391936000000000     -0.994556000000000     -4.092371000000000
C       0.397238000000000      3.613474000000000     -0.346206000000000
C       1.665305000000000     -0.419604000000000     -3.671110000000000
C       1.622929000000000      3.057593000000000     -0.787563000000000
C       2.550998000000000     -1.180467000000000     -2.818946000000000
C       3.466551000000000     -0.982680000000000     -0.517236000000000
C       3.428391000000000      0.085249000000000      0.373233000000000
C       2.442885000000000      2.344688000000000      0.111076000000000
C       2.227746000000000     -2.473479000000000     -2.512584000000000
C       3.008633000000000     -2.247129000000000     -0.151601000000000
C       2.916342000000000     -0.075067000000000      1.661820000000000
C       2.048302000000000      2.236877000000000      1.442644000000000
C       2.526285000000000     -2.444237000000000      1.157797000000000
C       2.475434000000000     -1.350155000000000      2.061185000000000
C       1.845636000000000     -3.772875000000000      1.518075000000000
C       1.708663000000000     -1.470121000000000      3.377622000000000
C       0.634636000000000     -3.515970000000000      2.398803000000000
C       0.580481000000000     -2.465075000000000      3.243323000000000
C      -0.201045000000000     -4.642305000000000      0.557282000000000
C      -0.471810000000000     -0.487431000000000      3.841913000000000
C      -0.564987000000000     -4.019859000000000      1.777237000000000
C      -0.682652000000000     -1.843129000000000      3.525028000000000
C      -2.793013000000000     -3.434479000000000      0.844868000000000
C      -2.912602000000000     -1.344396000000000      2.761026000000000
C      -3.794867000000000     -2.378561000000000      0.733471000000000
C      -3.861200000000000     -1.402465000000000      1.689657000000000
C      -4.504567000000000     -2.093099000000000     -0.581752000000000
C      -4.474726000000000     -0.012022000000000      1.482564000000000
C      -4.514775000000000     -0.594881000000000     -0.906607000000000
C      -4.431903000000000      0.405345000000000      0.023149000000000
C      -4.061542000000000     -0.397840000000000     -2.250797000000000
C      -3.942881000000000      1.717798000000000     -0.384862000000000
C      -3.585142000000000      0.851006000000000     -2.702956000000000
C      -3.541465000000000      1.947077000000000     -1.754062000000000
C      -2.665147000000000      0.812498000000000     -3.793541000000000
C      -2.615245000000000      3.003034000000000     -2.015509000000000
C      -1.717943000000000      1.878210000000000     -4.004831000000000
C      -1.687659000000000      2.942599000000000     -3.123544000000000
C      -0.479775000000000      1.300818000000000     -4.452636000000000
C      -0.445255000000000      3.549178000000000     -2.720202000000000
C       0.726374000000000      1.844822000000000     -3.995054000000000
C       0.731195000000000      3.005971000000000     -3.138119000000000
C       1.796579000000000      0.991846000000000     -3.648821000000000
C       1.972257000000000      3.006787000000000     -2.276363000000000
C       3.595857000000000     -0.498523000000000     -1.951233000000000
C       3.555878000000000      1.416887000000000     -0.352398000000000
C       2.588029000000000      1.656754000000000     -2.622169000000000
C       3.361955000000000      0.975391000000000     -1.774968000000000
C      -1.828998000000000     -3.383201000000000      1.938523000000000
C      -1.887063000000000     -2.295436000000000      2.884582000000000
Cl      4.040896000000000      1.798123000000000      3.362962000000000
Cl      5.204353000000000      2.201201000000000     -0.077926000000000
Cl      3.100566000000000      4.400369000000000     -2.696979000000000
Cl     -0.438242000000000      6.020178000000000     -1.418557000000000
Cl      2.861255000000000     -1.893401000000000      4.749040000000000
Cl      3.069707000000000     -4.898552000000000      2.310833000000000
Cl     -1.576743000000000      5.358175000000000      2.259527000000000
Cl      0.752906000000000      3.411358000000000      4.600912000000000
Cl     -6.230676000000000     -2.776909000000000     -0.544975000000000
Cl     -6.218861000000000      0.045099000000000      2.120712000000000
Cl      4.293054000000000     -4.182388000000000     -1.669024000000000
Cl      5.302765000000000     -0.803483000000000     -2.631885000000000
