100

C       0.637325000000000      4.871910000000000     -0.386756000000000
C       3.877792000000000      1.818776000000000      1.378368000000000
C      -1.836210000000000     -2.723948000000000     -2.571777000000000
C       2.206136000000000     -3.444334000000000     -0.364914000000000
C      -0.131347000000000      4.151503000000000      0.726042000000000
C       3.753686000000000      2.771817000000000      0.213055000000000
C      -2.511064000000000     -3.214464000000000     -1.302605000000000
C       1.750566000000000     -3.351378000000000     -1.796575000000000
C       0.587300000000000      3.471679000000000      1.775242000000000
C       4.025054000000000      2.394461000000000     -1.071406000000000
C       2.325069000000000     -2.500188000000000     -2.653400000000000
C      -1.495966000000000     -3.338531000000000     -0.179898000000000
C       1.994383000000000      3.284557000000000      1.657042000000000
C      -0.187579000000000     -3.659176000000000     -0.534428000000000
C       2.720474000000000      3.725571000000000      0.474924000000000
C       0.316355000000000     -3.803515000000000     -1.956387000000000
C       2.057309000000000      4.370689000000000     -0.538110000000000
C      -0.501638000000000     -2.934926000000000     -2.889212000000000
C       2.288471000000000      3.934943000000000     -1.870636000000000
C       0.149808000000000     -2.036393000000000     -3.802776000000000
C       1.049170000000000      3.933459000000000     -2.593869000000000
C      -0.590685000000000     -0.956389000000000     -4.346268000000000
C       0.051482000000000      4.519103000000000     -1.747166000000000
C      -1.950798000000000     -0.754118000000000     -3.968223000000000
C      -1.254923000000000      4.179292000000000     -1.898127000000000
C      -2.557565000000000     -1.630209000000000     -3.105757000000000
C      -2.231322000000000      4.153545000000000     -0.744045000000000
C      -3.720068000000000     -1.218320000000000     -2.233433000000000
C      -1.506627000000000      3.933003000000000      0.573676000000000
C      -3.496267000000000     -2.099530000000000     -1.030995000000000
C      -2.193340000000000      3.179651000000000      1.538368000000000
C      -3.785492000000000     -1.696330000000000      0.197419000000000
C      -1.518624000000000      2.575090000000000      2.592300000000000
C      -3.152445000000000     -2.318927000000000      1.426649000000000
C      -0.102118000000000      2.593577000000000      2.682288000000000
C      -1.754605000000000     -2.860176000000000      1.118084000000000
C       0.581572000000000      1.476919000000000      3.289158000000000
C      -0.683922000000000     -2.673072000000000      2.028113000000000
C       1.916763000000000      1.232627000000000      2.974706000000000
C       3.202090000000000     -0.530652000000000      1.810614000000000
C       2.811417000000000     -1.800058000000000      1.397611000000000
C       0.636102000000000     -2.957480000000000      1.630873000000000
C       2.621966000000000      2.163579000000000      2.191210000000000
C       3.789727000000000      0.370767000000000      0.921812000000000
C       2.980217000000000     -2.208861000000000      0.074779000000000
C       0.865375000000000     -3.468063000000000      0.355447000000000
C       4.007687000000000     -0.035125000000000     -0.410411000000000
C       3.591554000000000     -1.324662000000000     -0.831887000000000
C       4.478609000000000      0.995778000000000     -1.446814000000000
C       3.560315000000000     -1.679652000000000     -2.318551000000000
C       3.741048000000000      0.783204000000000     -2.758657000000000
C       3.325292000000000     -0.439510000000000     -3.148010000000000
C       3.250380000000000      2.958421000000000     -2.133828000000000
C       1.550688000000000     -1.827924000000000     -3.686153000000000
C       2.988288000000000      1.959790000000000     -3.121673000000000
C       2.131838000000000     -0.570209000000000     -3.936752000000000
C       0.746102000000000      2.919506000000000     -3.538082000000000
C      -0.012450000000000      0.336583000000000     -4.549872000000000
C      -0.654458000000000      2.602499000000000     -3.722557000000000
C      -1.029385000000000      1.335193000000000     -4.256114000000000
C      -1.612184000000000      3.217388000000000     -2.881203000000000
C      -2.215126000000000      0.670646000000000     -3.882212000000000
C      -2.748926000000000      2.477350000000000     -2.393382000000000
C      -3.031030000000000      1.162635000000000     -2.816658000000000
C      -3.064423000000000      2.912849000000000     -1.089492000000000
C      -3.663890000000000      0.270825000000000     -1.883169000000000
C      -3.621727000000000      2.043197000000000     -0.173219000000000
C      -3.942770000000000      0.703303000000000     -0.583227000000000
C      -3.528556000000000      2.454937000000000      1.282765000000000
C      -4.372030000000000     -0.324623000000000      0.472013000000000
C      -3.386950000000000      1.254327000000000      2.187095000000000
C      -3.762216000000000     -0.019588000000000      1.814865000000000
C      -2.284302000000000      1.420493000000000      3.040746000000000
C      -3.080131000000000     -1.132976000000000      2.341768000000000
C      -1.642064000000000      0.332044000000000      3.598881000000000
C      -2.037364000000000     -0.959531000000000      3.233182000000000
C      -0.205628000000000      0.394816000000000      4.027057000000000
C      -0.897852000000000     -1.933398000000000      3.347817000000000
C       2.535113000000000     -0.146275000000000      3.120349000000000
C       1.842282000000000     -2.428324000000000      2.383615000000000
C       0.261863000000000     -0.996992000000000      3.650498000000000
C       1.497632000000000     -1.234565000000000      3.234536000000000
C       1.759178000000000      1.896149000000000     -3.814957000000000
C       1.340416000000000      0.584100000000000     -4.284974000000000
Cl     -3.257999000000000      5.678717000000000     -0.683488000000000
Cl      0.609599000000000      6.696009000000000     -0.059675000000000
Cl     -4.981401000000000      3.476580000000000      1.773829000000000
Cl     -6.216237000000000     -0.369912000000000      0.559248000000000
Cl     -5.327622000000000     -1.602055000000000     -3.075700000000000
Cl      5.437421000000000      2.107735000000000      2.312351000000000
Cl      6.306710000000000      0.894508000000000     -1.630750000000000
Cl      5.098314000000000     -2.567987000000000     -2.793038000000000
Cl      3.703500000000000     -0.196244000000000      4.544101000000000
Cl     -0.073800000000000      0.692078000000000      5.856422000000000
Cl      3.198437000000000     -4.965485000000000     -0.042468000000000
Cl      2.628671000000000     -3.761943000000000      3.380901000000000
Cl     -1.159898000000000     -3.153270000000000      4.705677000000000
Cl     -4.195708000000000     -3.673066000000000      2.125914000000000
Cl     -3.374975000000000     -4.822150000000000     -1.573906000000000
Cl      0.246930000000000     -5.572392000000000     -2.522132000000000
