102

C      -0.670576000000000     -3.120045000000000     -3.107659000000000
C       3.211422000000000     -0.367833000000000     -3.335392000000000
C      -0.951757000000000      1.823684000000000      3.781336000000000
C       3.088469000000000      2.859823000000000      1.435231000000000
C      -1.247249000000000     -1.744850000000000     -3.445917000000000
C       2.858117000000000     -1.785270000000000     -2.955344000000000
C      -1.394037000000000      2.812483000000000      2.719971000000000
C       2.623870000000000      1.948481000000000      2.546217000000000
C      -0.423024000000000     -0.726399000000000     -4.023028000000000
C       3.247245000000000     -2.355727000000000     -1.761439000000000
C       3.015040000000000      0.633426000000000      2.639331000000000
C      -0.508974000000000      3.604732000000000      1.937241000000000
C       1.002053000000000     -0.923238000000000     -4.070877000000000
C       0.871399000000000      3.407484000000000      2.147523000000000
C       1.608554000000000     -2.122778000000000     -3.503791000000000
C       1.356598000000000      2.322991000000000      3.006987000000000
C       0.819002000000000     -3.098470000000000     -2.929091000000000
C       0.490607000000000      1.406806000000000      3.614742000000000
C       1.226775000000000     -3.691529000000000     -1.726995000000000
C       0.891398000000000      0.059778000000000      3.700403000000000
C       0.047149000000000     -4.164839000000000     -0.925639000000000
C      -0.130197000000000     -1.035767000000000      3.904046000000000
C      -1.108369000000000     -3.599233000000000     -1.737690000000000
C      -1.534536000000000     -0.588308000000000      3.560939000000000
C      -2.242969000000000     -3.201525000000000     -1.180091000000000
C      -1.910512000000000      0.685272000000000      3.519210000000000
C      -3.196230000000000     -2.258975000000000     -1.868617000000000
C      -3.134154000000000      1.159501000000000      2.754671000000000
C      -2.515446000000000     -1.413000000000000     -2.931110000000000
C      -2.653253000000000      2.491706000000000      2.249811000000000
C      -3.012081000000000     -0.125767000000000     -3.113388000000000
C      -3.119600000000000      3.047320000000000      1.064626000000000
C      -2.234238000000000      0.869729000000000     -3.725525000000000
C      -2.308671000000000      3.899304000000000      0.317284000000000
C      -0.888564000000000      0.632362000000000     -4.105586000000000
C      -0.938538000000000      4.123074000000000      0.665242000000000
C       0.053447000000000      1.746524000000000     -4.051437000000000
C       0.035028000000000      4.360348000000000     -0.371260000000000
C       1.455523000000000      1.470316000000000     -3.888851000000000
C       3.203688000000000      1.800078000000000     -2.157973000000000
C       3.213562000000000      2.602420000000000     -1.012031000000000
C       1.390341000000000      4.078777000000000     -0.131175000000000
C       1.896294000000000      0.119415000000000     -3.960537000000000
C       3.553720000000000      0.452483000000000     -2.106872000000000
C       3.507648000000000      2.049738000000000      0.225552000000000
C       1.800545000000000      3.646662000000000      1.144813000000000
C       3.915478000000000     -0.111966000000000     -0.864165000000000
C       3.878695000000000      0.681213000000000      0.304498000000000
C       4.101773000000000     -1.629233000000000     -0.751527000000000
C       3.991098000000000      0.010878000000000      1.675403000000000
C       3.528758000000000     -2.157254000000000      0.547667000000000
C       3.485764000000000     -1.413914000000000      1.644564000000000
C       2.422040000000000     -3.315928000000000     -1.143014000000000
C       2.151464000000000     -0.308907000000000      3.215676000000000
C       2.629761000000000     -3.361527000000000      0.342674000000000
C       2.528479000000000     -1.709489000000000      2.775751000000000
C       0.078547000000000     -3.572512000000000      0.482367000000000
C       0.077987000000000     -2.126812000000000      2.870628000000000
C      -1.141570000000000     -3.194061000000000      1.070964000000000
C      -1.124335000000000     -2.486956000000000      2.270298000000000
C      -2.453367000000000     -3.220675000000000      0.311087000000000
C      -2.280445000000000     -1.662096000000000      2.809215000000000
C      -3.172909000000000     -1.898610000000000      0.507582000000000
C      -3.078602000000000     -1.101293000000000      1.647320000000000
C      -3.594790000000000     -1.365600000000000     -0.704080000000000
C      -3.453588000000000      0.250119000000000      1.567167000000000
C      -3.951786000000000     -0.021677000000000     -0.815309000000000
C      -3.899487000000000      0.797016000000000      0.332387000000000
C      -4.087584000000000      0.523583000000000     -2.227489000000000
C      -4.115912000000000      2.310141000000000      0.188125000000000
C      -3.697298000000000      1.982581000000000     -2.290593000000000
C      -3.710022000000000      2.799245000000000     -1.192208000000000
C      -2.691638000000000      2.165247000000000     -3.278564000000000
C      -2.728243000000000      3.833991000000000     -1.074296000000000
C      -1.784015000000000      3.210239000000000     -3.184715000000000
C      -1.823645000000000      4.092876000000000     -2.075930000000000
C      -0.411252000000000      3.009663000000000     -3.583541000000000
C      -0.437556000000000      4.648774000000000     -1.801275000000000
C       2.237515000000000      2.353820000000000     -3.112663000000000
C       2.395947000000000      3.875359000000000     -1.253205000000000
C       0.400184000000000      3.869233000000000     -2.806175000000000
C       1.708096000000000      3.527474000000000     -2.556762000000000
C       1.303807000000000     -3.195134000000000      1.086852000000000
C       1.298520000000000     -2.449817000000000      2.280719000000000
Cl     -4.606046000000000      1.297343000000000      3.852596000000000
Cl     -5.865062000000000      2.723531000000000      0.576655000000000
Cl      3.477099000000000      5.355119000000000     -1.416335000000000
Cl      4.452301000000000      3.965680000000000      1.980596000000000
Cl      5.726683000000000      0.118052000000000      2.290335000000000
Cl      5.887944000000000     -2.044412000000000     -0.942642000000000
Cl      4.605169000000000     -0.302443000000000     -4.545387000000000
Cl     -5.792978000000000      0.265600000000000     -2.864436000000000
Cl     -4.630428000000000     -3.174934000000000     -2.573641000000000
Cl     -3.372498000000000     -2.636480000000000      3.927604000000000
Cl     -1.159789000000000     -4.325033000000000     -4.436417000000000
Cl     -3.481183000000000     -4.656044000000000      0.833386000000000
Cl     -0.032415000000000     -6.003868000000000     -0.821201000000000
Cl      3.447296000000000     -4.927221000000000      0.881906000000000
Cl      3.350420000000000     -2.656383000000000      4.129259000000000
Cl     -0.037284000000000     -1.694672000000000      5.624039000000000
Cl     -1.186391000000000      2.539815000000000      5.482121000000000
Cl     -0.373564000000000      6.475478000000000     -2.104304000000000
