102

C      -1.403518000000000     -3.724501000000000     -2.221734000000000
C       3.229239000000000     -2.742394000000000     -1.616244000000000
C      -1.043484000000000      2.362935000000000      3.360720000000000
C       3.407840000000000      1.365793000000000      2.464246000000000
C      -1.251961000000000     -2.351793000000000     -2.875456000000000
C       2.240005000000000     -3.804958000000000     -1.197118000000000
C      -0.841635000000000      3.582470000000000      2.485758000000000
C       2.384894000000000      1.026667000000000      3.527712000000000
C       0.046482000000000     -1.878013000000000     -3.288387000000000
C       2.087947000000000     -4.193786000000000      0.110929000000000
C       2.160703000000000     -0.287082000000000      3.913104000000000
C       0.488231000000000      3.528999000000000      1.754670000000000
C       1.207666000000000     -2.599072000000000     -2.897479000000000
C       1.533646000000000      2.863114000000000      2.393716000000000
C       1.114510000000000     -3.778808000000000     -2.052548000000000
C       1.341733000000000      1.956581000000000      3.526491000000000
C      -0.121123000000000     -4.226212000000000     -1.622351000000000
C       0.022854000000000      1.604814000000000      3.917149000000000
C      -0.283845000000000     -4.620201000000000     -0.287543000000000
C      -0.220760000000000      0.231372000000000      4.276098000000000
C      -1.696339000000000     -4.412451000000000      0.187780000000000
C      -1.509432000000000     -0.308392000000000      4.019926000000000
C      -2.295011000000000     -3.667969000000000     -0.992897000000000
C      -2.534298000000000      0.464746000000000      3.489349000000000
C      -3.244577000000000     -2.753921000000000     -0.851931000000000
C      -2.289442000000000      1.790358000000000      3.139590000000000
C      -3.517851000000000     -1.708124000000000     -1.905040000000000
C      -3.044567000000000      2.476619000000000      2.029357000000000
C      -2.324857000000000     -1.463045000000000     -2.812043000000000
C      -2.001901000000000      3.452581000000000      1.531225000000000
C      -2.162703000000000     -0.153976000000000     -3.297194000000000
C      -1.901294000000000      3.788349000000000      0.252124000000000
C      -0.930352000000000      0.296030000000000     -3.756856000000000
C      -0.624323000000000      4.345946000000000     -0.352167000000000
C       0.239921000000000     -0.501150000000000     -3.656446000000000
C       0.612532000000000      3.824999000000000      0.381665000000000
C       1.517756000000000      0.140988000000000     -3.460266000000000
C       1.766335000000000      3.414659000000000     -0.329364000000000
C       2.567709000000000     -0.576307000000000     -2.889571000000000
C       3.844147000000000     -0.492731000000000     -0.778659000000000
C       3.894045000000000      0.491987000000000      0.199738000000000
C       2.800593000000000      2.714214000000000      0.337647000000000
C       2.415948000000000     -1.954084000000000     -2.654635000000000
C       3.560195000000000     -1.819653000000000     -0.454410000000000
C       3.644007000000000      0.186987000000000      1.536558000000000
C       2.688212000000000      2.478285000000000      1.698447000000000
C       3.345434000000000     -2.163348000000000      0.897891000000000
C       3.379759000000000     -1.151087000000000      1.895588000000000
C       2.893238000000000     -3.590131000000000      1.249599000000000
C       2.939344000000000     -1.459206000000000      3.330957000000000
C       1.852181000000000     -3.540609000000000      2.357539000000000
C       1.883221000000000     -2.547579000000000      3.320098000000000
C       0.799756000000000     -4.564205000000000      0.573124000000000
C       0.864515000000000     -0.685930000000000      4.258291000000000
C       0.633581000000000     -4.086639000000000      1.931824000000000
C       0.685049000000000     -2.080153000000000      3.859241000000000
C      -1.761843000000000     -3.590527000000000      1.473081000000000
C      -1.674588000000000     -1.686618000000000      3.546697000000000
C      -2.801772000000000     -2.663679000000000      1.629701000000000
C      -2.771268000000000     -1.747423000000000      2.695541000000000
C      -3.765927000000000     -2.337384000000000      0.500428000000000
C      -3.506502000000000     -0.400556000000000      2.718413000000000
C      -3.846427000000000     -0.831079000000000      0.307266000000000
C      -3.679634000000000      0.122617000000000      1.309078000000000
C      -3.728207000000000     -0.482475000000000     -1.032636000000000
C      -3.428947000000000      1.463614000000000      0.947616000000000
C      -3.451415000000000      0.829894000000000     -1.412450000000000
C      -3.320496000000000      1.820310000000000     -0.415892000000000
C      -3.020050000000000      1.041125000000000     -2.850417000000000
C      -2.841723000000000      3.226658000000000     -0.794812000000000
C      -2.029902000000000      2.177005000000000     -2.947360000000000
C      -1.939011000000000      3.176132000000000     -2.000009000000000
C      -0.866446000000000      1.743300000000000     -3.601121000000000
C      -0.699191000000000      3.789904000000000     -1.744059000000000
C       0.346041000000000      2.371603000000000     -3.386785000000000
C       0.431657000000000      3.396506000000000     -2.437537000000000
C       1.651052000000000      1.658332000000000     -3.583299000000000
C       1.814228000000000      3.487323000000000     -1.853084000000000
C       3.708173000000000      0.115129000000000     -2.165091000000000
C       3.829273000000000      1.884670000000000     -0.408519000000000
C       2.467369000000000      2.249542000000000     -2.450190000000000
C       3.390542000000000      1.546906000000000     -1.809040000000000
C      -0.625622000000000     -3.557665000000000      2.362378000000000
C      -0.576001000000000     -2.563541000000000      3.400184000000000
Cl     -5.016253000000000     -2.131811000000000     -2.888711000000000
Cl     -2.057658000000000     -4.923306000000000     -3.481233000000000
Cl     -4.474672000000000      1.331304000000000     -3.933313000000000
Cl     -4.303818000000000      4.313808000000000     -1.075440000000000
Cl     -4.557909000000000      3.323329000000000      2.651448000000000
Cl      4.757525000000000     -3.492193000000000     -2.306045000000000
Cl      4.358361000000000     -4.609476000000000      1.679130000000000
Cl      4.401247000000000     -1.886294000000000      4.354616000000000
Cl      5.268491000000000      0.007578000000000     -3.136725000000000
Cl      2.384481000000000      2.068545000000000     -5.241000000000000
Cl      4.992590000000000      1.928368000000000      3.203694000000000
Cl     -5.132341000000000     -0.519005000000000      3.568441000000000
Cl     -5.422846000000000     -3.067022000000000      0.847543000000000
Cl      5.473839000000000      2.714421000000000     -0.394761000000000
Cl     -2.556471000000000     -6.040792000000000      0.460089000000000
Cl      2.686313000000000      5.028364000000000     -2.378364000000000
Cl     -0.615417000000000      6.193473000000000     -0.344406000000000
Cl     -0.945456000000000      5.146026000000000      3.489428000000000
