86

C      -0.939833000000000     -1.894892000000000      3.610424000000000
C      -4.021555000000000     -0.878701000000000      0.270263000000000
C       3.741670000000000      0.305434000000000     -2.568854000000000
C      -0.561472000000000      0.461013000000000     -3.973079000000000
C      -0.904327000000000     -0.490242000000000      3.781180000000000
C      -3.449036000000000     -2.108171000000000      0.930190000000000
C       3.471324000000000      1.679268000000000     -2.299375000000000
C       0.521069000000000     -0.462913000000000     -4.209726000000000
C      -1.943689000000000      0.314615000000000      3.133496000000000
C      -2.860919000000000     -3.108326000000000      0.206972000000000
C       0.355456000000000     -1.787180000000000     -3.899770000000000
C       2.273703000000000      2.315836000000000     -2.735605000000000
C      -2.935436000000000     -0.357525000000000      2.384963000000000
C       1.474354000000000      1.554808000000000     -3.619548000000000
C      -2.945977000000000     -1.780172000000000      2.232486000000000
C       1.781467000000000      0.203666000000000     -3.952487000000000
C      -1.944226000000000     -2.539817000000000      2.828276000000000
C       2.861619000000000     -0.492556000000000     -3.343476000000000
C      -1.333787000000000     -3.617627000000000      2.074266000000000
C       2.675091000000000     -1.904567000000000     -2.978761000000000
C       0.067575000000000     -3.638611000000000      2.360904000000000
C       3.350653000000000     -2.407179000000000     -1.831775000000000
C       0.285667000000000     -2.656083000000000      3.413184000000000
C       4.207932000000000     -1.549109000000000     -1.038059000000000
C       1.503796000000000     -2.052896000000000      3.556149000000000
C       4.406709000000000     -0.242024000000000     -1.394410000000000
C       1.583111000000000     -0.665121000000000      3.934097000000000
C       4.501624000000000      0.790122000000000     -0.378556000000000
C       0.397485000000000      0.118678000000000      4.045796000000000
C       4.026452000000000      1.988636000000000     -0.995402000000000
C       0.554028000000000      1.496091000000000      3.834209000000000
C       3.469803000000000      2.984502000000000     -0.233830000000000
C      -0.529319000000000      2.314768000000000      3.300949000000000
C       2.325304000000000      3.738365000000000     -0.720724000000000
C      -1.715896000000000      1.715393000000000      2.813312000000000
C       1.643085000000000      3.346398000000000     -1.898300000000000
C      -2.372549000000000      2.317709000000000      1.654044000000000
C       0.189147000000000      3.514651000000000     -1.936978000000000
C      -3.242683000000000      1.499426000000000      0.824252000000000
C      -3.346365000000000      0.638880000000000     -1.540866000000000
C      -2.479159000000000      0.998747000000000     -2.630680000000000
C      -0.610586000000000      2.641907000000000     -2.792171000000000
C      -3.535794000000000      0.227886000000000      1.218312000000000
C      -3.496936000000000     -0.658944000000000     -1.143454000000000
C      -1.776981000000000      0.022399000000000     -3.371004000000000
C       0.026971000000000      1.715325000000000     -3.639220000000000
C      -2.814579000000000     -1.722456000000000     -1.885396000000000
C      -1.954041000000000     -1.374550000000000     -3.013655000000000
C      -2.577819000000000     -2.946425000000000     -1.219672000000000
C      -0.905192000000000     -2.266028000000000     -3.367868000000000
C      -1.403730000000000     -3.715744000000000     -1.490146000000000
C      -0.587323000000000     -3.382019000000000     -2.547361000000000
C      -1.777037000000000     -3.882250000000000      0.787054000000000
C       1.445207000000000     -2.537151000000000     -3.287856000000000
C      -0.827182000000000     -4.188368000000000     -0.237527000000000
C       0.854203000000000     -3.498348000000000     -2.414852000000000
C       1.038584000000000     -3.853853000000000      1.349566000000000
C       2.726243000000000     -3.312916000000000     -0.929129000000000
C       2.355016000000000     -3.235181000000000      1.540354000000000
C       3.180656000000000     -3.004790000000000      0.422464000000000
C       2.578019000000000     -2.366113000000000      2.650884000000000
C       4.069886000000000     -1.892008000000000      0.355726000000000
C       3.380445000000000     -1.191723000000000      2.543062000000000
C       4.092941000000000     -0.883215000000000      1.367557000000000
C       2.768554000000000     -0.139810000000000      3.347261000000000
C       4.273364000000000      0.521583000000000      0.992749000000000
C       2.882101000000000      1.221218000000000      2.992711000000000
C       3.674588000000000      1.581558000000000      1.811372000000000
C       1.798725000000000      2.056468000000000      3.401183000000000
C       3.372477000000000      2.819955000000000      1.191512000000000
C       1.494522000000000      3.279869000000000      2.703650000000000
C       2.266443000000000      3.649307000000000      1.622825000000000
C       0.052792000000000      3.445326000000000      2.669399000000000
C       1.632495000000000      4.215167000000000      0.436537000000000
C      -0.562080000000000      3.999053000000000      1.543051000000000
C       0.256525000000000      4.380511000000000      0.397693000000000
C      -1.787667000000000      3.470544000000000      1.069971000000000
C      -0.457599000000000      4.060377000000000     -0.799955000000000
C      -3.534116000000000      1.852470000000000     -0.626600000000000
C      -1.937863000000000      2.295375000000000     -2.391354000000000
C      -1.781861000000000      3.624863000000000     -0.392658000000000
C      -2.511180000000000      2.804589000000000     -1.188934000000000
C       0.569039000000000     -4.146818000000000     -0.009123000000000
C       1.433505000000000     -3.837088000000000     -1.159755000000000
Cl     -5.883701000000000     -0.984507000000000      0.259120000000000
Cl     -5.242993000000000      2.568067000000000     -0.794303000000000
