88

C       3.917606000000000     -1.083734000000000     -2.514784000000000
C       1.291141000000000      2.483802000000000     -3.228510000000000
C      -0.837557000000000     -0.500219000000000      3.964547000000000
C      -1.955964000000000      3.191199000000000      1.322371000000000
C       2.768198000000000     -1.791966000000000     -2.951347000000000
C       2.704779000000000      2.342919000000000     -3.009088000000000
C      -1.911728000000000     -1.080342000000000      3.257875000000000
C      -1.060610000000000      2.900099000000000      2.507376000000000
C       1.720985000000000     -1.049691000000000     -3.660594000000000
C       3.276873000000000      2.914555000000000     -1.890006000000000
C       0.238643000000000      3.304820000000000      2.537825000000000
C      -2.686071000000000     -0.325100000000000      2.327614000000000
C       1.928265000000000      0.327444000000000     -3.892855000000000
C      -2.468593000000000      1.071685000000000      2.349310000000000
C       3.100435000000000      1.013339000000000     -3.438845000000000
C      -1.442280000000000      1.681759000000000      3.149334000000000
C       4.071089000000000      0.317425000000000     -2.734213000000000
C      -0.526932000000000      0.894963000000000      3.884541000000000
C       4.669191000000000      0.914510000000000     -1.545532000000000
C       0.868842000000000      1.320569000000000      3.920032000000000
C       4.869666000000000     -0.115716000000000     -0.572250000000000
C       1.885108000000000      0.324726000000000      3.978849000000000
C       4.525104000000000     -1.370125000000000     -1.223366000000000
C       1.539225000000000     -1.085845000000000      4.008211000000000
C       4.110154000000000     -2.444367000000000     -0.486594000000000
C       0.231625000000000     -1.489657000000000      4.018553000000000
C       3.080726000000000     -3.311724000000000     -0.993261000000000
C      -0.178111000000000     -2.666695000000000      3.275941000000000
C       2.406519000000000     -2.996940000000000     -2.207809000000000
C      -1.541642000000000     -2.453905000000000      2.917154000000000
C       1.100903000000000     -3.502556000000000     -2.332308000000000
C      -2.071529000000000     -3.063025000000000      1.817140000000000
C       0.093331000000000     -2.816276000000000     -3.121414000000000
C      -3.221979000000000     -2.450726000000000      1.028548000000000
C       0.337363000000000     -1.537063000000000     -3.656836000000000
C      -3.195468000000000     -0.919439000000000      1.114819000000000
C      -0.776389000000000     -0.585927000000000     -3.686810000000000
C      -3.402995000000000     -0.121558000000000     -0.015419000000000
C      -0.499179000000000      0.833790000000000     -3.691575000000000
C      -0.890169000000000      2.838660000000000     -2.280476000000000
C      -1.706854000000000      3.022666000000000     -1.117877000000000
C      -3.139208000000000      1.295818000000000      0.029867000000000
C       0.827308000000000      1.274955000000000     -3.833763000000000
C       0.473130000000000      3.203831000000000     -2.304899000000000
C      -1.174800000000000      3.492434000000000      0.052149000000000
C      -2.720808000000000      1.869325000000000      1.207429000000000
C       1.055780000000000      3.773471000000000     -1.099911000000000
C       0.227628000000000      3.892118000000000      0.097810000000000
C       2.467121000000000      3.659427000000000     -0.948307000000000
C       0.876889000000000      3.882695000000000      1.356852000000000
C       3.050071000000000      3.463047000000000      0.340168000000000
C       2.259479000000000      3.568756000000000      1.465748000000000
C       4.284113000000000      2.180788000000000     -1.136915000000000
C       1.224756000000000      2.522939000000000      3.260672000000000
C       4.086763000000000      2.446420000000000      0.258031000000000
C       2.470931000000000      2.661211000000000      2.576460000000000
C       4.604866000000000      0.091130000000000      0.805540000000000
C       3.089628000000000      0.438396000000000      3.237731000000000
C       4.198720000000000     -1.080476000000000      1.593560000000000
C       3.485984000000000     -0.893820000000000      2.794274000000000
C       3.979643000000000     -2.330006000000000      0.942975000000000
C       2.511648000000000     -1.831740000000000      3.247887000000000
C       2.928643000000000     -3.214011000000000      1.333683000000000
C       2.120047000000000     -2.953791000000000      2.457903000000000
C       2.376951000000000     -3.827413000000000      0.135859000000000
C       0.714847000000000     -3.367911000000000      2.428988000000000
C       1.017745000000000     -4.195893000000000      0.058179000000000
C       0.162792000000000     -3.988690000000000      1.230781000000000
C       0.443770000000000     -4.171765000000000     -1.246841000000000
C      -1.236362000000000     -3.864772000000000      0.998359000000000
C      -0.972411000000000     -4.006994000000000     -1.434204000000000
C      -1.800020000000000     -3.852877000000000     -0.334720000000000
C      -1.187042000000000     -3.187952000000000     -2.594495000000000
C      -2.916556000000000     -2.946546000000000     -0.366954000000000
C      -2.234219000000000     -2.271820000000000     -2.587413000000000
C      -3.131067000000000     -2.172006000000000     -1.469453000000000
C      -2.030496000000000     -0.977591000000000     -3.149132000000000
C      -3.692745000000000     -0.766603000000000     -1.380128000000000
C      -1.384770000000000      1.719315000000000     -3.013375000000000
C      -2.951520000000000      2.129495000000000     -1.226281000000000
C      -2.903942000000000     -0.058346000000000     -2.470871000000000
C      -2.582775000000000      1.256060000000000     -2.398298000000000
C       4.196599000000000      1.431046000000000      1.239048000000000
C       3.392630000000000      1.584301000000000      2.461611000000000
Cl     -3.107234000000000      4.595875000000000      1.718211000000000
Cl     -4.460237000000000      3.139471000000000     -1.575727000000000
Cl     -5.512240000000000     -0.720439000000000     -1.698202000000000
Cl     -4.860804000000000     -3.066303000000000      1.646113000000000
