86

C       0.333550000000000     -1.957829000000000     -3.574766000000000
C       3.856510000000000     -1.346661000000000     -0.557367000000000
C      -3.368895000000000      0.673749000000000      2.843779000000000
C       1.053049000000000      0.314414000000000      3.873682000000000
C       0.478753000000000     -0.566319000000000     -3.765034000000000
C       2.941833000000000     -2.469914000000000     -1.029908000000000
C      -2.973356000000000      2.027946000000000      2.595534000000000
C      -0.074880000000000     -0.547486000000000      4.038953000000000
C       1.666203000000000      0.094501000000000     -3.213189000000000
C       2.253270000000000     -3.340133000000000     -0.184734000000000
C      -0.048942000000000     -1.892356000000000      3.610767000000000
C      -1.675271000000000      2.499132000000000      2.916065000000000
C       2.606748000000000     -0.699991000000000     -2.527599000000000
C      -0.879494000000000      1.608956000000000      3.680325000000000
C       2.397433000000000     -2.100242000000000     -2.295064000000000
C      -1.274241000000000      0.262498000000000      3.934081000000000
C       1.268882000000000     -2.716883000000000     -2.802874000000000
C      -2.483786000000000     -0.269353000000000      3.435478000000000
C       0.563714000000000     -3.678721000000000     -1.989364000000000
C      -2.513088000000000     -1.674008000000000      3.009451000000000
C      -0.831161000000000     -3.575551000000000     -2.314521000000000
C      -3.482546000000000     -2.028981000000000      2.042088000000000
C      -0.965945000000000     -2.559562000000000     -3.338018000000000
C      -4.296292000000000     -1.031713000000000      1.375071000000000
C      -2.108813000000000     -1.798326000000000     -3.407143000000000
C      -4.246178000000000      0.278855000000000      1.765317000000000
C      -2.014687000000000     -0.402503000000000     -3.756525000000000
C      -4.314306000000000      1.344903000000000      0.787072000000000
C      -0.745858000000000      0.213155000000000     -3.945809000000000
C      -3.621100000000000      2.450897000000000      1.370947000000000
C      -0.698866000000000      1.599339000000000     -3.728043000000000
C      -3.022344000000000      3.391343000000000      0.568641000000000
C       0.524519000000000      2.266892000000000     -3.296724000000000
C      -1.751654000000000      3.985582000000000      0.949711000000000
C       1.662250000000000      1.517609000000000     -2.907221000000000
C      -1.013105000000000      3.484048000000000      2.052575000000000
C       2.499261000000000      2.033741000000000     -1.827942000000000
C       0.447868000000000      3.489223000000000      1.961153000000000
C       3.343524000000000      1.119156000000000     -1.073730000000000
C       3.690234000000000      0.308997000000000      1.286029000000000
C       2.972631000000000      0.758681000000000      2.452977000000000
C       1.226489000000000      2.525121000000000      2.742812000000000
C       3.417294000000000     -0.188919000000000     -1.460574000000000
C       3.672963000000000     -1.008845000000000      0.898656000000000
C       2.246399000000000     -0.155810000000000      3.266619000000000
C       0.560235000000000      1.642230000000000      3.608303000000000
C       3.031359000000000     -1.966071000000000      1.743333000000000
C       2.315871000000000     -1.526659000000000      2.936281000000000
C       2.393263000000000     -3.114971000000000      1.240811000000000
C       1.211232000000000     -2.395078000000000      3.160213000000000
C       1.011447000000000     -3.963830000000000     -0.676107000000000
C      -1.293990000000000     -2.483544000000000      3.088673000000000
C      -0.012626000000000     -4.303024000000000      0.254917000000000
C      -1.161365000000000     -3.571313000000000      2.195853000000000
C       0.133360000000000     -3.965141000000000      1.660840000000000
C       1.289643000000000     -3.408237000000000      2.134381000000000
C      -1.847096000000000     -3.759586000000000     -1.340064000000000
C      -3.246939000000000     -3.056141000000000      1.069153000000000
C      -3.064919000000000     -2.937663000000000     -1.415129000000000
C      -3.759524000000000     -2.622486000000000     -0.222126000000000
C      -3.181455000000000     -1.981517000000000     -2.463391000000000
C      -4.389078000000000     -1.354464000000000     -0.029324000000000
C      -3.776457000000000     -0.697641000000000     -2.258239000000000
C      -4.335248000000000     -0.320548000000000     -1.018452000000000
C      -3.075558000000000      0.274237000000000     -3.084732000000000
C      -4.264126000000000      1.084243000000000     -0.604096000000000
C      -2.969775000000000      1.628439000000000     -2.709271000000000
C      -3.602506000000000      2.071549000000000     -1.462073000000000
C      -1.818956000000000      2.316633000000000     -3.201600000000000
C      -3.081683000000000      3.244960000000000     -0.860400000000000
C      -1.300562000000000      3.482219000000000     -2.533677000000000
C      -1.919940000000000      3.932545000000000     -1.387455000000000
C       0.149149000000000      3.460449000000000     -2.626330000000000
C      -1.115662000000000      4.398515000000000     -0.262181000000000
C       0.926652000000000      3.928778000000000     -1.564751000000000
C       0.267984000000000      4.398886000000000     -0.350096000000000
C       2.118646000000000      3.254238000000000     -1.205595000000000
C       1.045208000000000      3.982964000000000      0.775194000000000
C       3.854232000000000      1.474655000000000      0.318215000000000
C       2.499284000000000      2.078535000000000      2.234889000000000
C       2.273343000000000      3.410288000000000      0.244374000000000
C       2.995171000000000      2.527838000000000      0.974895000000000
C      -1.393225000000000     -4.202922000000000     -0.064602000000000
C      -2.105427000000000     -3.816806000000000      1.149608000000000
Cl      5.627691000000000      2.027319000000000      0.227037000000000
Cl      5.638710000000000     -1.809621000000000     -0.901817000000000
