62

C       0.212685234358093     -0.073272260822528     -3.780302953166828
C       0.271178674131972      1.343207300122742     -3.267661021779109
C      -1.021571946327908      1.777618025494939     -2.857144439485396
C      -1.156900817811886     -0.495269515482159     -3.312553068260841
C      -1.907509412087207      0.637082465125936     -2.884994234966612
C      -1.401991372339922     -1.716912352038282     -2.732449084129005
C      -0.306863916957145     -2.596949230003799     -2.346314405951683
C       1.273261527791659     -0.912477921999200     -3.150504318263239
C       1.001145163538818     -2.170517062614483     -2.567760914992693
C       2.410578724459136     -0.356044537391731     -2.523455167945258
C       1.379999350602507      1.864558485901784     -2.644996454661646
C       2.494442377579999      1.009387959652762     -2.258254536082935
C       1.236864989169937      2.850076794028620     -1.610706606661206
C      -1.172083963360268      2.737986774493003     -1.866203885661715
C      -0.018146983077893      3.292675134293543     -1.227432484927691
C      -2.188628545440259      2.597355578338302     -0.859135065603044
C      -2.898395784492056      0.515572558467246     -1.920471007320740
C      -3.037748026148714      1.504218770518582     -0.885827331066794
C      -2.416434672211573     -1.853097188355051     -1.725549149927403
C      -3.164983427268633     -0.758489620243365     -1.326354133655151
C      -0.648451949722242     -3.254622879144782     -1.135466049335879
C      -1.960149935716703     -2.793218725727107     -0.736029708432134
C       0.310856430646253     -3.504620422126897     -0.156331257459190
C       2.010146780015052     -2.430400631265172     -1.551196473275815
C       2.888126414672552     -1.300109808286356     -1.523596970881806
C       1.676685674310056     -3.082423185649223     -0.383987153495011
C       3.409464663886199     -0.851683450852658     -0.329516778657485
C       3.018209317283955      1.465752588562878     -1.020203576593630
C       2.237025701942894      2.610128612550265     -0.604090387019563
C       3.474760627641929      0.568516923806725     -0.056873032848242
C       1.944074898373593      2.804616127248704      0.731718121765317
C      -0.322913007007937      3.495184963331013      0.162123041659622
C      -1.667799605632895      3.067483487797642      0.395759586286137
C       0.635284474253551      3.249608727048923      1.131359258079372
C      -1.994198625129718      2.424469018011263      1.582032260589044
C      -3.393792588730067      0.845479804285008      0.341502576506695
C      -3.469464770979790     -0.555613249688620      0.063210298514313
C      -2.879881134583356      1.284261709849383      1.554190682539812
C      -2.252663842333254     -2.598168894442658      0.599792527591708
C      -3.017236771156774     -1.452563083972510      1.016541308018669
C       0.008767602324165     -3.303010612405479      1.221275777162946
C      -1.250758743878272     -2.853456892133810      1.611723935471393
C       2.216330876276652     -2.625206867244418      0.870213622547386
C       3.070601839524814     -1.525438064864891      0.897067892186075
C       1.183315547417214     -2.753888625580538      1.864766774677722
C       3.172096683661434      0.769386398055605      1.320715867519794
C       2.415523658514125      1.866430637016628      1.726974463912645
C       2.915893057149302     -0.523408340920287      1.919230809837419
C       0.282524053369016      2.594475433322196      2.359377943428219
C      -1.012761715994889      2.197751342353336      2.588933395692361
C       1.404201093372928      1.734997358203933      2.714839050876146
C      -2.441054592133637      0.358999908624420      2.544034665791116
C      -2.499103082051843     -0.986527451628402      2.271936757650224
C      -1.397272193479926     -1.871554941161212      2.626773926027115
C      -1.361588525177012      0.974304881227332      3.397845435896740
C       1.047265506407818     -1.789686309936978      2.839895544298054
C       1.925249120429898     -0.659390448071151      2.867495222153677
C       1.136869123135107      0.491286491848382      3.284276723455983
C      -0.272333177471971     -1.322888126639562      3.239978065962704
C      -0.188293328710996      0.060031873583989      3.516148828951797
Cl      0.388556403872077     -0.165450145974105     -5.600025476533387
Cl     -1.957839498347013      1.396455708552770      5.076973633157121
