71

C       3.407297000000000      1.542569000000000     -0.509091000000000
C       3.653463000000000      0.744746000000000      0.827806000000000
C       3.675947000000000     -0.812390000000000      0.420099000000000
C       3.063206000000000      0.466633000000000     -1.491925000000000
C       3.244406000000000     -0.816130000000000     -1.016165000000000
C       1.959439000000000      0.817226000000000     -2.278353000000000
C       2.152682000000000      2.388415000000000     -0.556476000000000
C       1.407078000000000      2.050711000000000     -1.749487000000000
C       1.412329000000000      2.769317000000000      0.596375000000000
C       2.459411000000000      0.832372000000000      1.731191000000000
C       1.596361000000000      1.953111000000000      1.810526000000000
C       2.525115000000000     -1.416651000000000      1.221316000000000
C       2.018073000000000     -0.431012000000000      2.132751000000000
C       1.720368000000000     -2.438604000000000      0.792787000000000
C       2.431634000000000     -1.820601000000000     -1.510137000000000
C       1.953358000000000     -2.977784000000000     -0.632185000000000
C       1.122066000000000     -0.171352000000000     -2.827477000000000
C       1.466224000000000     -1.525228000000000     -2.491849000000000
C      -0.261689000000000      0.167507000000000     -3.120120000000000
C       0.076859000000000      2.370007000000000     -1.938807000000000
C      -0.783015000000000      1.475366000000000     -2.688244000000000
C       0.157621000000000      3.342096000000000      0.377664000000000
C      -0.473620000000000      3.438883000000000     -1.012787000000000
C      -0.875190000000000      3.296920000000000      1.353180000000000
C       0.517143000000000      1.826192000000000      2.703941000000000
C      -0.698146000000000      2.585115000000000      2.541364000000000
C       0.795793000000000     -0.620908000000000      2.831108000000000
C       0.158594000000000      0.554658000000000      3.278648000000000
C       0.462385000000000     -2.714548000000000      1.496441000000000
C       0.030742000000000     -1.825403000000000      2.578994000000000
C      -0.516153000000000     -3.506729000000000      0.864976000000000
C       0.648271000000000     -3.347299000000000     -1.302220000000000
C       0.447256000000000     -2.542155000000000     -2.466480000000000
C      -0.442522000000000     -3.754675000000000     -0.587356000000000
C      -1.172131000000000     -0.895443000000000     -3.311674000000000
C      -0.819444000000000     -2.262618000000000     -2.938938000000000
C      -2.567709000000000     -0.738885000000000     -3.058298000000000
C      -2.181841000000000      1.623131000000000     -2.548710000000000
C      -3.062450000000000      0.508415000000000     -2.685588000000000
C      -1.941842000000000      3.264798000000000     -0.711579000000000
C      -2.168745000000000      3.299961000000000      0.702390000000000
C      -2.746900000000000      2.496013000000000     -1.508035000000000
C      -3.246278000000000      2.619827000000000      1.272312000000000
C      -1.795740000000000      1.831518000000000      3.093092000000000
C      -1.251114000000000      0.569257000000000      3.556765000000000
C      -3.052878000000000      1.861145000000000      2.495399000000000
C      -1.332575000000000     -1.815169000000000      2.963267000000000
C      -1.978574000000000     -0.597317000000000      3.423503000000000
C      -1.902956000000000     -3.383321000000000      1.193633000000000
C      -2.310629000000000     -2.572175000000000      2.245055000000000
C      -1.770330000000000     -3.596450000000000     -1.130147000000000
C      -1.961305000000000     -2.869185000000000     -2.313728000000000
C      -3.066253000000000     -1.944280000000000     -2.416526000000000
C      -2.688919000000000     -3.421791000000000     -0.032874000000000
C      -3.995533000000000     -1.838966000000000     -1.386337000000000
C      -3.803240000000000     -2.598831000000000     -0.165122000000000
C      -4.107172000000000      0.603321000000000     -1.680032000000000
C      -3.904776000000000      1.831653000000000     -0.949657000000000
C      -4.146670000000000      1.879043000000000      0.424167000000000
C      -4.541558000000000     -0.544558000000000     -1.023376000000000
C      -3.837714000000000      0.648173000000000      2.397078000000000
C      -3.321404000000000     -0.558262000000000      2.878070000000000
C      -3.526676000000000     -1.784061000000000      2.142907000000000
C      -4.241692000000000     -1.772632000000000      0.947805000000000
C      -4.537443000000000      0.669106000000000      1.125400000000000
C      -4.729177000000000     -0.516178000000000      0.417487000000000
Cl      4.829193000000000      2.541009000000000     -1.093015000000000
Cl      5.075744000000000      1.304654000000000      1.788417000000000
Cl      5.224506000000000     -1.695882000000000      0.716310000000000
Cl      3.107578000000000     -4.419512000000000     -0.624595000000000
Cl     -0.166827000000000      5.130104000000000     -1.774546000000000
