63

C      -1.309470878670870      0.007988076170460      3.563002333567880
C      -0.373504707536190     -1.151376758345080      3.266094022514270
C       0.952617552329590     -0.708629366086230      3.269421338126310
C       0.961574416724050      0.714826088477040      3.251043845914320
C      -0.393314797369570      1.176746489677850      3.278044266969980
C       2.309651591706790     -2.567049032573640      0.581930136641730
C       3.158042637556010     -1.398929745544680      0.582596881682210
C       2.953368281540490     -0.691237959220250      1.802815469763020
C       2.078808579539090     -1.512066754527380      2.723663238234750
C       1.576178196374000     -2.593665036608140      1.799312568684030
C       3.171182502644190      1.408576239318260      0.575834339301200
C       2.326973983548480      2.575737457326170      0.577271076107630
C       1.569338951564150      2.573210051593590      1.804255066318890
C       1.943366886878770      1.423421349455960      2.558873665268420
C       2.935801655674430      0.684450218947020      1.796489716249400
C      -0.366845060078770      3.440826174088650      0.577230951817250
C      -1.738907010360700      2.999526997778150      0.571602828011580
C      -1.988401185698960      2.285910226637260      1.791973861742640
C      -0.746714262047530      2.286284420408960      2.562878329524890
C       0.240533833568520      3.001724065415330      1.802014662110100
C      -3.370000878130060      0.724632492118220      0.569657873300280
C      -3.364348568456590     -0.715631740823240      0.572449337043580
C      -2.783183407472140     -1.158774750043130      1.792196121743030
C      -2.639028158347570      0.007343283864220      2.747414846028000
C      -2.789229372857130      1.174877875077850      1.792445825288730
C      -1.726672577228650     -2.985614640974200      0.567331429306460
C      -0.359574796780740     -3.430575915683610      0.568417564557220
C       0.253873677496610     -2.988959559012190      1.792706481471720
C      -0.746309937940510     -2.286441676723940      2.566264379886460
C      -1.966343173876480     -2.267786767949570      1.792866666594470
C      -0.243024791751720     -3.008502601866950     -1.845086840699570
C       0.749087560682450     -2.287637040177570     -2.599287138674100
C       1.972428490708190     -2.285285956907910     -1.834022411533910
C       1.732910829914500     -3.004658098444430     -0.610839823470040
C       0.368729887956360     -3.447612471619670     -0.614807364034370
C       2.788757160371850     -1.162507252491530     -1.833367374479520
C       2.413734350667200      0.002298328725670     -2.593492973215990
C       2.793381401642270      1.167843889517690     -1.834739643301650
C       3.403979394749590      0.720121108405360     -0.609023270078460
C       3.399001325361350     -0.714457110211350     -0.606269235349570
C       1.973801455523160      2.288808511804170     -1.830192787760480
C       0.749696218692350      2.290056194164420     -2.589642161191360
C      -0.243494109099630      3.009032656808940     -1.832541803432820
C       0.365670481553050      3.451280813768270     -0.604484328464660
C       1.737310125534390      3.006104537855290     -0.602999713699460
C      -1.565320695975860      2.583811997854650     -1.841317900730700
C      -1.941596030412140      1.417906774455440     -2.601516268375180
C      -2.932399485748230      0.696776342901350     -1.846223278492010
C      -3.163106326782160      1.418612438702600     -0.617729791074020
C      -2.325884722122770      2.581441715110940     -0.618244935474550
C      -2.931376075522150     -0.690411870444770     -1.844175770899830
C      -1.940664047166020     -1.413205548227990     -2.604457748692250
C      -1.563190356938040     -2.578919520668370     -1.846847478693380
C      -2.319039113686160     -2.572183414480760     -0.619361945361640
C      -3.159968853342690     -1.411010192733560     -0.618871687007370
C      -0.983722671320530     -0.717855183992130     -3.332993193058130
C      -0.983599129947900      0.723819578370310     -3.331253705501340
C       0.386292195690940      1.167958054226520     -3.325437683740980
C       1.233517249198480      0.003191372664210     -3.325916282852810
C       0.386194437808480     -1.163503525856780     -3.329880599083850
Cl     -1.600347090248780     -0.016225962074420      5.348705431337720
Cl     -4.101057451940530      0.005039707082310      3.817337480737340
Cl      3.059804760765910     -2.221764465358640      4.100100848470980
