62

C       0.211563916635352     -0.066291199126429     -3.761408182177074
C       0.266448621889085      1.345528873058438     -3.231699207463086
C      -1.025224690145738      1.788901338208065     -2.820154480428411
C      -1.157630547173538     -0.485216489883865     -3.288577622231003
C      -1.895636405790712      0.630062211582909     -2.863598513373125
C      -1.400814964708316     -1.730866395130985     -2.725629552861590
C      -0.312801599732657     -2.586386381131099     -2.345590465207318
C       1.273416996084737     -0.911342399244445     -3.140943774691496
C       1.003703181161983     -2.164247471811850     -2.561769798204940
C       2.429462316988404     -0.363462422255537     -2.518695471547844
C       1.387682727622008      1.844151021380547     -2.623601735900000
C       2.512277801529927      0.994086782376379     -2.247873177034238
C       1.238044138875776      2.819388513317542     -1.586723310322446
C      -1.173860870234621      2.753896438168205     -1.848224096343866
C      -0.022110553172792      3.272370682012570     -1.207258142387770
C      -2.351473132316448      2.810185031331783     -0.907356260155149
C      -2.887788286550254      0.523066799883100     -1.874281761359622
C      -3.042663039409566      1.493803149721605     -0.878943469592129
C      -2.420802865542161     -1.870602057927798     -1.712255388726427
C      -3.160909405708861     -0.782449227138369     -1.299868691032602
C      -0.648273313727431     -3.260081852097240     -1.124836737825048
C      -1.965169475424103     -2.821626352748543     -0.731555452298166
C       0.311996150244835     -3.498125047900476     -0.156164707998864
C       2.013212354053811     -2.427515042635796     -1.548010939522760
C       2.903740155353926     -1.309344330411759     -1.522045213716053
C       1.674263645039584     -3.074939926833779     -0.378243864178525
C       3.419370367647391     -0.858705170613837     -0.320664820597157
C       3.038661632561174      1.452247013548186     -1.008246183554344
C       2.248140069628636      2.594956642456451     -0.601862521457124
C       3.493032655184329      0.554856022065120     -0.050693406391381
C       1.962712723017630      2.793251376991269      0.738371592202713
C      -0.322024685079808      3.484830713245571      0.186104014935638
C      -1.674889246741677      3.096903024903007      0.410904839519391
C       0.661237268851412      3.245822157159370      1.138917650610062
C      -1.997350434252299      2.445693923837005      1.573021278418441
C      -3.387312468576543      0.846831808666359      0.344124816250782
C      -3.463761037712988     -0.580034316570042      0.081428483233016
C      -2.884749967087516      1.288256479107052      1.557137208750415
C      -2.257500590608034     -2.629024353765629      0.610048188775604
C      -3.028924206368815     -1.486666685459934      1.026668261764044
C       0.004917828452102     -3.294824828767297      1.232172042997129
C      -1.255278690244933     -2.872725571224803      1.616515366872002
C       2.207680506507132     -2.615248648179311      0.876218436665757
C       3.068064220704990     -1.525784280490514      0.906693758055105
C       1.177271906038929     -2.749218492910916      1.871247605029994
C       3.180221037709210      0.762098492850193      1.335365153384593
C       2.443639233350259      1.864561747055498      1.730638458518435
C       2.917271944380746     -0.524539479714681      1.930562077415121
C       0.320841254988590      2.587510536641417      2.361743536028952
C      -0.989546694682625      2.184155501942948      2.563314636786611
C       1.415577516294724      1.729342263271344      2.725219700184393
C      -2.425252191725647      0.347221311748896      2.527165787830841
C      -2.494372283004228     -1.018905378340413      2.280444454141368
C      -1.397413347588720     -1.870574699782536      2.640420232354759
C      -1.253553048666554      0.903491293753451      3.161378680653621
C       1.036309382364125     -1.787188669608646      2.855291868867975
C       1.923561870356266     -0.652319785552140      2.885708848270076
C       1.159281129680251      0.494027790692889      3.297356467090838
C      -0.271486878439989     -1.340912875277960      3.252660443796167
C      -0.201261823295820      0.073448460779998      3.509656797421561
Cl      0.391289939710402     -0.151464862929076     -5.579144018530644
Cl     -3.549310614662939      4.117558633369493     -1.358974129957678
