62

C       0.202149584522021     -0.084507599116393     -3.760608043047304
C       0.250524004891394      1.332880675865507     -3.231046326860032
C      -1.001288062277933      1.752676420511657     -2.835223554844018
C      -1.163223128610454     -0.507911069158815     -3.297035686536364
C      -1.902913248793930      0.636351909907904     -2.860312165216368
C      -1.400017943773001     -1.728042071126164     -2.725782655125296
C      -0.302206957227209     -2.610757599622597     -2.344824695056746
C       1.272017299559835     -0.913739226341337     -3.141038639805547
C       0.999536392516197     -2.192140959681806     -2.562043458648678
C       2.391909243831599     -0.361316078845708     -2.524273154075555
C       1.398546837123617      1.869408727164926     -2.632700332234636
C       2.463967908282654      1.027090022229568     -2.263175584931872
C       1.229335069726786      2.868569835908681     -1.585142010187034
C      -1.249081378673801      2.941605039028490     -1.971147784280932
C      -0.006613866999972      3.313831090451757     -1.209305964812400
C      -2.192607389474905      2.612473414418369     -0.845018767379410
C      -2.891017252468523      0.506527191945683     -1.896817140050525
C      -3.022842774289056      1.524883713737897     -0.868570342137646
C      -2.412954800118742     -1.864012584701919     -1.709827434401403
C      -3.152460980684342     -0.760822323367364     -1.306790775758665
C      -0.647738880201309     -3.267644699650836     -1.124293458357949
C      -1.960295861717042     -2.808197682301283     -0.733331941175491
C       0.312463110214496     -3.509037612823566     -0.151487463735745
C       2.008490232708665     -2.440851547331463     -1.549058419946835
C       2.875707457918385     -1.301075373327845     -1.521473131538029
C       1.672406492801804     -3.084201810831095     -0.375523596231885
C       3.387478647526525     -0.849730741246467     -0.326831031975232
C       2.998991936227950      1.473035369533810     -1.001165523561959
C       2.230067482698416      2.615040297547400     -0.584606919013451
C       3.450475278311135      0.572050521660735     -0.057994507840724
C       1.959540424870384      2.801655180253721      0.759202088020047
C      -0.304344914609237      3.478325873555222      0.174317453120078
C      -1.660470518223931      3.052203765764646      0.401786175423977
C       0.656710597469214      3.244136923458245      1.149498041608102
C      -1.991048605155561      2.409783882803131      1.588888475835524
C      -3.378143588962199      0.855231477449292      0.357931909742034
C      -3.457868584918662     -0.552304929274098      0.084464793264296
C      -2.875306612596053      1.284646723622057      1.570647402139487
C      -2.250465819554585     -2.615740503583729      0.608289187144399
C      -3.016322803735672     -1.468636432218164      1.023639267440050
C       0.005805898345504     -3.301972881005099      1.234523545881005
C      -1.254739942329643     -2.867150853929180      1.613294841011662
C       2.203876563202506     -2.618772852633184      0.877267660461529
C       3.049308119899419     -1.517080265474631      0.899024611607697
C       1.174148446909735     -2.751106882219911      1.873512239901602
C       3.161616352492227      0.768011067743325      1.337078794191683
C       2.428002472736135      1.869202739459511      1.748395966617454
C       2.905732958861669     -0.519429798049732      1.926013623306078
C       0.310724199956286      2.581882627343790      2.372468169754529
C      -0.993817778010617      2.169764083456013      2.588207137681505
C       1.407595393924439      1.726058677222558      2.750292958334028
C      -2.420029219093418      0.340221470370600      2.555147722148374
C      -2.492091882181856     -1.016920721747697      2.284632491603952
C      -1.398057084512571     -1.876186042151163      2.643425396517480
C      -1.255646854255434      0.887670426014121      3.196555789990713
C       1.035532834359373     -1.791984224049755      2.859889129696742
C       1.919715369533799     -0.655373691839309      2.888356819083355
C       1.156532569025086      0.487839286733970      3.312281916607645
C      -0.273986579315855     -1.347938950487912      3.260754536482991
C      -0.201154588670672      0.059672217148322      3.538014426420081
Cl      0.397085393886869     -0.169769122129558     -5.570449276263729
Cl     -1.876441511931960      4.327143825929291     -2.990380818078306
