70

C       0.226103135490526     -0.031507486061084     -3.776903452038166
C       0.289793859250375      1.549893984339305     -3.708242544432575
C      -1.167587946403826      1.930378964258684     -3.144866242049542
C      -1.084236101896617     -0.476076979862653     -3.220300800365979
C      -1.781462233889713      0.624264023492797     -2.759464941975355
C      -1.349528325462378     -1.704561800234173     -2.667638823415769
C      -0.334905143832706     -2.803898045227187     -2.477981322114762
C       1.131864180818225     -0.733703266767086     -2.862951450455358
C       0.902670732243796     -2.029342985736212     -2.352469359658544
C       2.254052246647833     -0.243481313044140     -2.252804415789980
C       1.598044418860517      2.066420565415671     -2.877160336058026
C       2.774787015331846      1.105411414810460     -2.420262882754857
C       1.194305575832418      2.659986724967291     -1.562281823789869
C      -1.262478787303039      2.985379952597368     -2.006228101017014
C      -0.005365093823763      3.139852463348312     -1.209212912477077
C      -2.212555805266661      2.639026694310986     -0.880552464967070
C      -2.800537131435231      0.506645987910893     -1.848789309656111
C      -3.019670313523707      1.543614479303584     -0.852571335377514
C      -2.332079997424359     -1.846814769842518     -1.670723325825187
C      -3.070630900409753     -0.741780399346062     -1.272572731500311
C      -0.638324777332261     -3.298471081139736     -1.082740995852079
C      -1.912226258620217     -2.800210696983116     -0.686581956411205
C       0.306772678179029     -3.528947741392678     -0.128446388767122
C       1.890830734868055     -2.296676854325643     -1.415223189727109
C       2.747216950339598     -1.202317504721754     -1.355647452596766
C       1.780984480359924     -3.316939713856795     -0.360482320108174
C       3.688307834538025     -0.939067650411856     -0.262073275609289
C       3.060586956381616      1.428356670942069     -0.973396920855984
C       2.203102761607617      2.463260690466311     -0.561862317791826
C       3.482141726383974      0.535762149857639     -0.028587027167496
C       1.911869951414640      2.700495842607637      0.767983413403019
C      -0.316594782700195      3.382949591127864      0.176299721941945
C      -1.675021937140088      3.042563905646214      0.388730920765400
C       0.623568845483590      3.163453290390829      1.153943436641255
C      -2.028155189640699      2.427909256851617      1.583945946248083
C      -3.392537913673487      0.881117074968034      0.363375202910563
C      -3.441608594807054     -0.533756558594365      0.093264203170182
C      -2.918511804963505      1.311716379130637      1.581992640260408
C      -2.245698197726077     -2.591728601777391      0.635959024736589
C      -3.020505314866949     -1.447885063007070      1.039599450277204
C      -0.009450635021327     -3.271835147291536      1.238659045173331
C      -1.263384621264776     -2.840544926085665      1.632522177874675
C       2.204312265662615     -2.631588247570177      0.916713433994866
C       3.052226549278659     -1.564443482306930      0.957511579181342
C       1.151147251618871     -2.723234222905787      1.875986971297736
C       3.117863114436436      0.716814692030047      1.343072794593464
C       2.368784004466254      1.800118690908855      1.752660154257123
C       2.851297602127350     -0.562495521775366      1.943906441783367
C       0.262865781587799      2.560276331346684      2.397958336573710
C      -1.046042449008349      2.182754124829247      2.608847294234549
C       1.357354521353831      1.698121413191777      2.772504481172911
C      -2.472074225002178      0.362986922889727      2.572906049055454
C      -2.530634432091310     -0.992397818291489      2.311916813419023
C      -1.437896232272407     -1.856309149179715      2.663574251442584
C      -1.312044718757400      0.904098619307778      3.223718096885029
C       0.983956938923085     -1.781216888063475      2.873723682782502
C       1.862327190381196     -0.665787835509614      2.908929923617587
C       1.100108721025785      0.472807762921798      3.338320793013361
C      -0.319656678357408     -1.332324352618256      3.283462733345851
C      -0.264509576066304      0.072899062113967      3.574221034065459
Cl      0.425725634136829     -0.638810193621637     -5.461481494564167
Cl     -0.318835176585526     -4.103295687954368     -3.715483430700846
Cl     -1.535710844763595      4.634670575821159     -2.704673020092378
Cl     -2.281228493343165      2.438675979101073     -4.482726463899002
Cl      2.700672758565615     -4.818508268485781     -0.735311847554223
Cl      5.377985446003893     -1.465193654585948     -0.561430989763200
Cl      0.453133618206337      2.238586994299354     -5.340845771716663
Cl      2.307154075835947      3.510819833522520     -3.685889741946689
Cl      4.195968975354655      1.169952107409314     -3.490791511533534
Cl      3.986298657537056     -1.882670248566558     -2.486088369598393
