63

C      -1.325019452930689      0.013359584751756      3.581894310306036
C      -0.383304643600516     -1.135239577705601      3.279372561829222
C       0.949273446996771     -0.706385603690464      3.271768337964599
C       0.966964641320023      0.701687099140104      3.264169159457341
C      -0.404803687991242      1.162315638158366      3.288299593527619
C       2.307876611902858     -2.556615105048331      0.575163284092284
C       3.163114224205617     -1.397833127321460      0.571610173549704
C       2.943670999211892     -0.701157989261727      1.796079100192538
C       2.083227450792946     -1.510509933348481      2.728704897408007
C       1.579405977895737     -2.575207321123838      1.796760491438789
C       3.169596385915919      1.389896646215450      0.562936647914628
C       2.324029306764490      2.549326864584680      0.567882979112960
C       1.560389661651721      2.547517861537902      1.790174428317290
C       1.926048231744878      1.400912335835083      2.541209233836081
C       2.929376462457819      0.668522107844188      1.790306326718180
C      -0.365651232508505      3.410733383551297      0.580427748661820
C      -1.733434455184698      2.966645761321432      0.573083982425022
C      -1.992880372813789      2.261794087492035      1.794733654571445
C      -0.748823879225749      2.260513525854661      2.568302717438227
C       0.239019229997668      2.966142842094132      1.795994592230538
C      -3.374143853379482      0.720836857367231      0.572791753366005
C      -3.360558057394989     -0.710453704114075      0.576916547764080
C      -2.791433032043416     -1.150055948565316      1.807620342479340
C      -2.664343473074148      0.010809129435948      2.762276579050091
C      -2.804869756030410      1.168138584349217      1.808120790289525
C      -1.714504624114521     -2.950497500128799      0.573187519411116
C      -0.352592135682640     -3.389804258472309      0.572262099403579
C       0.263933428317839     -2.955275766079770      1.797534415623361
C      -0.743443194105362     -2.251702213459236      2.564476573462332
C      -1.970646554270775     -2.246449444428751      1.804174215068402
C      -0.236480854110187     -2.989554299353725     -1.850760560063112
C       0.751306186206468     -2.277796300994837     -2.612185981580095
C       1.966217532399420     -2.271854862305200     -1.837334429341112
C       1.727445264566069     -2.978242899651578     -0.615476534951026
C       0.364516607214300     -3.409845119493303     -0.612168338969918
C       2.783378463889941     -1.153603265918567     -1.838370003596548
C       2.414382463075428      0.006304733783379     -2.613670740224289
C       2.791569985319426      1.165183784543249     -1.849873324291801
C       3.394487292413037      0.718801788816959     -0.622935616006351
C       3.384924720423325     -0.712391584005008     -0.616171005912351
C       1.974686880721276      2.283889090463287     -1.840957858860542
C       0.754467328217006      2.286346866327639     -2.597349369521924
C      -0.236336711933048      2.994695820565362     -1.834666172021021
C       0.364439458835661      3.422954626911218     -0.601820429748826
C       1.735707260495103      2.983250971285512     -0.607261300244947
C      -1.553325256682918      2.568072412952112     -1.842159820602867
C      -1.929042867322782      1.411905615248292     -2.607632765881975
C      -2.916197781659763      0.695085642709626     -1.836090853007540
C      -3.145540932497912      1.404234246610094     -0.610825952949504
C      -2.305820486482898      2.562011679484310     -0.616724389682186
C      -2.914476260305490     -0.688946838546362     -1.833669228275278
C      -1.930553005917958     -1.407314259434405     -2.610866808069735
C      -1.552386428802348     -2.561875631931369     -1.847542559436571
C      -2.295428761262399     -2.549633115893587     -0.613307507173705
C      -3.141945733429615     -1.397281690269200     -0.611867930546429
C      -0.978070273879182     -0.716880854016774     -3.338446388540548
C      -0.976798797746812      0.725040933197005     -3.337175283431673
C       0.391368315510987      1.169446395751048     -3.335433068776126
C       1.238270626701113      0.006769805747801     -3.340426111553556
C       0.389373252913898     -1.159846123549642     -3.341811546971960
Cl     -1.647333561050221     -0.013834372109219      5.366757927598083
Cl     -4.119407050697347     -0.004183376967986      3.852518697131786
Cl      3.063099819161113     -2.205169027640433      4.116687944485937
