64

C      -1.338076832388385     -0.000205596997694      3.579896337545902
C      -0.412180246281786     -1.144751693490552      3.278449561184545
C       0.958939937723818     -0.676661566815125      3.240805076889839
C       0.959007918795652      0.676059269598429      3.240040399227975
C      -0.412723029271136      1.144456788349991      3.277955119946364
C       2.305222299624142     -2.540611258065260      0.571017264879030
C       3.149830304759534     -1.383030732071540      0.559278266621080
C       2.949291869019802     -0.678523528349154      1.790882309763449
C       2.101156193396159     -1.493100226538491      2.733886112720397
C       1.581192754353943     -2.550847295054514      1.802327879754723
C       3.149267785845329      1.381660812718162      0.558950481935980
C       2.304540250279543      2.538869935411742      0.570268738164565
C       1.580138455500443      2.549076166682366      1.801500129364181
C       2.100822723094748      1.492256182255643      2.733305403267014
C       2.948712565532541      0.677390226293573      1.790958007616748
C      -0.346355297550741      3.370631696251816      0.576527951118534
C      -1.717136538690489      2.942455859386140      0.571848307349414
C      -1.988120066894533      2.246863779804505      1.795215799779457
C      -0.751828787632670      2.238020746188142      2.567393879934612
C       0.272731321056518      2.936093574666503      1.793065438085411
C      -3.376151169747768      0.714833428576418      0.562685458673270
C      -3.376109705950048     -0.714244679823137      0.562779371085382
C      -2.810329604670038     -1.156348973286287      1.800113777604737
C      -2.683406190120682      0.000096741517759      2.757215396337995
C      -2.810247293135489      1.156756932654753      1.800255683048247
C      -1.716796703758087     -2.941716820729425      0.571744901660433
C      -0.346215663077507     -3.370487097223867      0.576640574909046
C       0.272964120756538     -2.936546933011221      1.793636910421823
C      -0.751736519512729     -2.238316327899771      2.567861645278000
C      -1.987756244517611     -2.246283866462127      1.795197050031427
C      -0.240200052792100     -2.983860336346039     -1.851909821519598
C       0.743506762685876     -2.279332834675594     -2.621823075340530
C       1.959795181537667     -2.274007869942526     -1.849972962689226
C       1.724267855103432     -2.969162376799686     -0.617440248961351
C       0.362890861178135     -3.399548524066098     -0.613068901939617
C       2.773099734501427     -1.155861264159826     -1.858832948273156
C       2.400676461067830      0.000001416305024     -2.632590489956216
C       2.773457147415164      1.155929588530389     -1.859149271824619
C       3.369351709520087      0.712628702690323     -0.630625518738726
C       3.369389512863906     -0.713836902513486     -0.630195620168357
C       1.960537171209881      2.274148059160976     -1.850416529625239
C       0.743714483434841      2.279763585615460     -2.621801674187349
C      -0.240261506729648      2.984397038464674     -1.851765805026972
C       0.363142261402145      3.399799944482699     -0.613098966447021
C       1.724045552346640      2.968762599674875     -0.618015824754941
C      -1.557446881571332      2.560210323019847     -1.852566247865747
C      -1.938548707461094      1.409678694952114     -2.622155787191750
C      -2.923523091270296      0.692536328029852     -1.847267094624078
C      -3.148812244571003      1.398784730683956     -0.622220396375231
C      -2.298315844794072      2.549078365354698     -0.618987013473215
C      -2.922764756850654     -0.691767807557136     -1.847091671929950
C      -1.937787010751338     -1.408757938282727     -2.621782826465383
C      -1.556975933815479     -2.559259029382612     -1.852579873238297
C      -2.297438847046503     -2.548050932919646     -0.619057126149049
C      -3.147953491947158     -1.397997422279164     -0.622309740184635
C      -0.989092253339566     -0.720824354130679     -3.356670231476323
C      -0.989579402443534      0.721425721328198     -3.356731690668880
C       0.379258284231801      1.164669644156765     -3.357496065109362
C       1.226532697340425      0.000096226589391     -3.363545156012235
C       0.379213471498738     -1.164237612920807     -3.357674806512915
Cl     -1.667066248185060     -0.000977847022854      5.362101349013086
Cl     -4.127386861030165     -0.000464223710776      3.857717033685668
Cl      3.068480086941795     -2.119477620604776      4.138218047978583
Cl      3.067571802302749      2.120706121345804      4.137774600232622
