71

C       3.451649000000000     -1.824326000000000      0.671285000000000
C       3.687899000000000     -1.058118000000000     -0.683481000000000
C       3.667142000000000      0.508744000000000     -0.311640000000000
C       3.098230000000000     -0.736201000000000      1.641529000000000
C       3.237732000000000      0.536269000000000      1.125952000000000
C       2.005466000000000     -1.104498000000000      2.435790000000000
C       2.195354000000000     -2.678041000000000      0.732265000000000
C       1.484539000000000     -2.365851000000000      1.910061000000000
C       1.498830000000000     -3.133372000000000     -0.402974000000000
C       2.505392000000000     -1.209586000000000     -1.593753000000000
C       1.668899000000000     -2.342945000000000     -1.647646000000000
C       2.501848000000000      1.054934000000000     -1.125005000000000
C       2.017117000000000      0.052086000000000     -1.997875000000000
C       1.646439000000000      2.079662000000000     -0.713972000000000
C       2.392111000000000      1.529077000000000      1.591172000000000
C       1.886411000000000      2.661486000000000      0.693644000000000
C       1.131453000000000     -0.131410000000000      2.951385000000000
C       1.431892000000000      1.222229000000000      2.572675000000000
C      -0.253167000000000     -0.497715000000000      3.257340000000000
C       0.127138000000000     -2.713140000000000      2.096477000000000
C      -0.750382000000000     -1.820024000000000      2.860799000000000
C       0.230389000000000     -3.705848000000000     -0.164362000000000
C      -0.422893000000000     -3.561089000000000      1.103905000000000
C      -0.809878000000000     -3.747974000000000     -1.179450000000000
C       0.571201000000000     -2.252124000000000     -2.529197000000000
C      -0.638027000000000     -3.035515000000000     -2.356215000000000
C       0.786767000000000      0.201998000000000     -2.683813000000000
C       0.177111000000000     -0.995324000000000     -3.112047000000000
C       0.423944000000000      2.298110000000000     -1.405121000000000
C      -0.000791000000000      1.394269000000000     -2.444399000000000
C      -0.563102000000000      3.344064000000000     -0.874032000000000
C       0.569003000000000      3.006748000000000      1.349673000000000
C       0.389207000000000      2.211999000000000      2.525756000000000
C      -0.527784000000000      3.402417000000000      0.645227000000000
C      -1.186238000000000      0.549390000000000      3.419223000000000
C      -0.865476000000000      1.913152000000000      3.010819000000000
C      -2.585088000000000      0.362066000000000      3.172076000000000
C      -2.144930000000000     -1.992410000000000      2.702064000000000
C      -3.060848000000000     -0.895773000000000      2.830812000000000
C      -1.848991000000000     -3.630336000000000      0.890326000000000
C      -2.099687000000000     -3.752327000000000     -0.528314000000000
C      -2.691507000000000     -2.885801000000000      1.689876000000000
C      -3.187801000000000     -3.088372000000000     -1.096408000000000
C      -1.749580000000000     -2.301884000000000     -2.921563000000000
C      -1.227135000000000     -1.039455000000000     -3.392460000000000
C      -3.008887000000000     -2.345878000000000     -2.324348000000000
C      -1.366141000000000      1.359377000000000     -2.858631000000000
C      -1.975316000000000      0.128169000000000     -3.276834000000000
C      -2.014893000000000      2.974534000000000     -1.129519000000000
C      -2.376769000000000      2.120632000000000     -2.140279000000000
C      -1.838761000000000      3.184331000000000      1.178422000000000
C      -2.018051000000000      2.481547000000000      2.377880000000000
C      -3.108713000000000      1.543187000000000      2.507174000000000
C      -2.763081000000000      2.978088000000000      0.089632000000000
C      -4.043270000000000      1.402715000000000      1.486800000000000
C      -3.877358000000000      2.144874000000000      0.251007000000000
C      -4.106464000000000     -1.034056000000000      1.833272000000000
C      -3.875049000000000     -2.270121000000000      1.124084000000000
C      -4.101990000000000     -2.343740000000000     -0.252007000000000
C      -4.567303000000000      0.092366000000000      1.153799000000000
C      -3.814215000000000     -1.139515000000000     -2.240858000000000
C      -3.322885000000000      0.066372000000000     -2.734376000000000
C      -3.563015000000000      1.300972000000000     -2.023153000000000
C      -4.295504000000000      1.297635000000000     -0.836413000000000
C      -4.521401000000000     -1.156252000000000     -0.970701000000000
C      -4.752508000000000      0.033699000000000     -0.284776000000000
Cl      4.871881000000000     -2.809112000000000      1.264836000000000
Cl      5.135973000000000     -1.597755000000000     -1.617560000000000
Cl      5.192851000000000      1.429123000000000     -0.626097000000000
Cl      3.009695000000000      4.112784000000000      0.638432000000000
Cl     -0.160382000000000      4.989133000000000     -1.652521000000000
