62

C      -1.299901610457590      0.010698543063500      3.523053597143960
C      -0.357179187990620     -1.157679892607430      3.296532807659220
C       0.950567864211420     -0.713845861938160      3.268697152740380
C       0.969461008375120      0.724845322838790      3.260920105389060
C      -0.380744577506540      1.188657558489970      3.300083080733770
C       2.314522719075350     -2.572928834612770      0.575073877732300
C       3.156120193462540     -1.402439813351180      0.578008994238570
C       2.947689166509280     -0.693651586530490      1.798909385692780
C       2.081414650534900     -1.518123346859090      2.725622672686680
C       1.574519340730600     -2.598479495468370      1.796515532300510
C       3.165170232276330      1.403124529555680      0.574043093602100
C       2.321132600651690      2.572737368987930      0.577841018308240
C       1.569009696764850      2.576221383297460      1.809146002662400
C       1.944266916555710      1.426790264146160      2.564392164283160
C       2.930213577292830      0.680287727091540      1.792762183668590
C      -0.368076838086490      3.446730777050820      0.586076237149790
C      -1.743808221368790      3.008999992307120      0.583800034991870
C      -1.990054869514460      2.301142479953520      1.805374477220810
C      -0.744953896311180      2.290487258617870      2.566262448671140
C       0.242122487365810      3.010675257150570      1.807957212634780
C      -3.408467890256860      0.731294884919460      0.571525882237000
C      -3.394326591550850     -0.705621842388650      0.576991576061970
C      -2.766827704444720     -1.131165269251230      1.818051894339880
C      -2.426597908034180      0.002528547847440      2.550477274764750
C      -2.789949400543090      1.169271491309750      1.800359394439290
C      -1.716806106312100     -2.997330598529520      0.582591394563460
C      -0.351517955465580     -3.450171018903430      0.572518739959670
C       0.263262176975530     -3.002336987738990      1.790387728515870
C      -0.750862459949780     -2.296234548347920      2.569499360274630
C      -1.945139966208430     -2.288977431007760      1.827038921729640
C      -0.242905391791390     -3.014795434584510     -1.837344481060440
C       0.745226577418020     -2.289720651157680     -2.596719553123380
C       1.973194691146790     -2.288703528335470     -1.840939162969840
C       1.736004554114770     -3.009214832133060     -0.613178591201470
C       0.372908881722430     -3.458305235531030     -0.615100740768330
C       2.785193889360180     -1.165773431062920     -1.837438742024450
C       2.407017096431600      0.003303449373120     -2.594657323187120
C       2.787802710865670      1.166340821817350     -1.836812557939900
C       3.398864213193000      0.717183643796860     -0.611844709387510
C       3.395658439354150     -0.717250014619400     -0.610518585203250
C       1.966990673889090      2.288336454546590     -1.829804722867280
C       0.743190081776700      2.289798004925870     -2.583354305824350
C      -0.250371057634220      3.012417617287170     -1.821061626415930
C       0.361048080406160      3.453382254946870     -0.599560149293480
C       1.732228871098070      3.005058517687100     -0.599941042951070
C      -1.573796322765200      2.586840043541220     -1.825919529782370
C      -1.951216413796800      1.420623831326690     -2.587308664318850
C      -2.946266201099490      0.702067914194390     -1.831589930271210
C      -3.184766255017430      1.425432391140200     -0.609376425081950
C      -2.334919580800530      2.589282528520280     -0.606616516889960
C      -2.939721765034160     -0.687616468531100     -1.822942769189120
C      -1.945479044710430     -1.410770515372380     -2.578307651114370
C      -1.562611786181930     -2.575913740871360     -1.822437162628860
C      -2.308546320985030     -2.572623871915210     -0.592931713831600
C      -3.166299047643730     -1.399094582864500     -0.594587352107610
C      -0.993986432864650     -0.717002899565370     -3.312556709167500
C      -0.995675244025200      0.725013800070830     -3.313431633828390
C       0.376548134406690      1.169024327381800     -3.315877453473180
C       1.222927310595690      0.004027585365330     -3.320585726342150
C       0.376625292368390     -1.163467096652090     -3.319394494687850
Cl     -1.933808647845870     -0.006198747653580      5.231578578128590
Cl      3.059854914498780     -2.233640557761550      4.091132170555740
