62

C       0.212685253413963     -0.073272218933263     -3.780302953714729
C       0.271178700931051      1.343207301316254     -3.267661005385030
C      -1.021571985297527      1.777617890492242     -2.857144574162468
C      -1.156900869457788     -0.495269452089300     -3.312553083504153
C      -1.907509427643489      0.637082573245870     -2.884994233344593
C      -1.401991396649531     -1.716912396191006     -2.732449135650701
C      -0.306863950594930     -2.596949335906898     -2.346314338843494
C       1.273261478247116     -0.912477881353709     -3.150504386171750
C       1.001145180288909     -2.170517096056697     -2.567760935054800
C       2.410578758677599     -0.356044621784922     -2.523455014726496
C       1.379999359599979      1.864558499282771     -2.644996514506090
C       2.494442407479235      1.009387984541433     -2.258254505356572
C       1.236864953264136      2.850076859626335     -1.610706592797619
C      -1.172083952501613      2.737986865968160     -1.866203820904048
C      -0.018147062696074      3.292675073234324     -1.227432453665675
C      -2.188628512964606      2.597355664160926     -0.859135056211220
C      -2.898395824143568      0.515572604169285     -1.920470977400844
C      -3.037747923509929      1.504218776229882     -0.885827353642797
C      -2.416434687479487     -1.853097186245444     -1.725549071264985
C      -3.164983444849913     -0.758489592628172     -1.326354115334551
C      -0.648451935685947     -3.254622873299671     -1.135466084887186
C      -1.960149877559949     -2.793218724169291     -0.736029773541714
C       0.310856515545801     -3.504620440694726     -0.156331212222209
C       2.010146852697265     -2.430400513998568     -1.551196540776764
C       2.888126416800113     -1.300109937373501     -1.523596936528838
C       1.676685706818515     -3.082423147109560     -0.383987173146862
C       3.409464575168522     -0.851683479810093     -0.329516792302192
C       3.018209360003597      1.465752528386527     -1.020203597066914
C       2.237025763866416      2.610128573917308     -0.604090401647322
C       3.474760630774319      0.568517001052111     -0.056873069711108
C       1.944074879193734      2.804616144984595      0.731718147802118
C      -0.322913008240022      3.495184999310761      0.162122998175333
C      -1.667799582513147      3.067483501675006      0.395759587886305
C       0.635284449192961      3.249608736516159      1.131359281965439
C      -1.994198633149035      2.424469010726868      1.582032269967714
C      -3.393792641524949      0.845479781770517      0.341502509067752
C      -3.469464763413949     -0.555613287235990      0.063210356234776
C      -2.879881238324429      1.284261679533048      1.554190647110564
C      -2.252663858551430     -2.598168844739392      0.599792599378076
C      -3.017236687473664     -1.452563112683301      1.016541277737289
C       0.008767528820382     -3.303010599318869      1.221275755594776
C      -1.250758632605314     -2.853456999725573      1.611723841166411
C       2.216330883696087     -2.625206734762282      0.870213625201337
C       3.070601784245508     -1.525438114536439      0.897067837875982
C       1.183315566622913     -2.753888628877903      1.864766816492413
C       3.172096614324994      0.769386513099364      1.320715938643931
C       2.415523715070711      1.866430567127209      1.726974492942143
C       2.915893082273711     -0.523408325090573      1.919230767358665
C       0.282524053695889      2.594475381426754      2.359377926677258
C      -1.012761694456018      2.197751369204361      2.588933419678235
C       1.404201157353250      1.734997420251185      2.714838904369507
C      -2.441054578427182      0.358999918826534      2.544034640937376
C      -2.499103158715214     -0.986527483108379      2.271936806348462
C      -1.397272238047868     -1.871554903418540      2.626773882957341
C      -1.361588488410372      0.974304935653080      3.397845413722370
C       1.047265485991092     -1.789686277781325      2.839895558790049
C       1.925249085765962     -0.659390470867577      2.867495204025851
C       1.136869102638435      0.491286376382677      3.284276707576089
C      -0.272333175116597     -1.322888075655474      3.239978094255406
C      -0.188293341590560      0.060031893936664      3.516148844066834
Cl      0.388556460039022     -0.165450155887269     -5.600025548369452
Cl     -1.957839527240388      1.396455719260570      5.076973655125398
