84

C      -1.720245000000000      0.510984000000000     -3.758776000000000
C      -1.696075000000000     -3.495601000000000     -1.657586000000000
C       0.795058000000000      2.030952000000000      3.550651000000000
C      -0.163348000000000     -2.424704000000000      3.341252000000000
C      -0.343271000000000      0.226564000000000     -3.920683000000000
C      -2.728385000000000     -2.569264000000000     -2.024001000000000
C       2.106781000000000      1.531339000000000      3.270029000000000
C      -0.898152000000000     -1.263759000000000      3.754134000000000
C       0.117463000000000     -1.147850000000000     -3.697301000000000
C      -3.600569000000000     -2.006276000000000     -1.063166000000000
C      -2.190997000000000     -0.991361000000000      3.270592000000000
C       2.393201000000000      0.142592000000000      3.255342000000000
C      -0.844712000000000     -2.116069000000000     -3.350297000000000
C       1.355284000000000     -0.695035000000000      3.731099000000000
C      -2.218530000000000     -1.774683000000000     -3.122376000000000
C       0.052434000000000     -0.200241000000000      4.015789000000000
C      -2.644670000000000     -0.478882000000000     -3.306860000000000
C      -0.291312000000000      1.161072000000000      3.836108000000000
C      -3.580414000000000      0.120111000000000     -2.365508000000000
C      -1.639992000000000      1.490385000000000      3.365991000000000
C      -3.284144000000000      1.516193000000000     -2.297930000000000
C      -1.798556000000000      2.719885000000000      2.679320000000000
C      -2.175895000000000      1.773601000000000     -3.201553000000000
C      -0.659191000000000      3.531514000000000      2.302098000000000
C      -1.284704000000000      2.779105000000000     -2.931883000000000
C       0.598625000000000      3.205596000000000      2.727797000000000
C       0.111845000000000      2.584997000000000     -3.222499000000000
C       1.741706000000000      3.377908000000000      1.855505000000000
C       0.585834000000000      1.336372000000000     -3.717754000000000
C       2.703847000000000      2.411314000000000      2.284663000000000
C       1.933178000000000      1.045103000000000     -3.450151000000000
C       3.631070000000000      1.919597000000000      1.399906000000000
C       2.405995000000000     -0.326699000000000     -3.327897000000000
C       4.033320000000000      0.523210000000000      1.455114000000000
C       1.508558000000000     -1.417998000000000     -3.317680000000000
C       3.360214000000000     -0.402274000000000      2.293270000000000
C       1.835926000000000     -2.571734000000000     -2.475232000000000
C       3.204754000000000     -1.779664000000000      1.818510000000000
C       0.765796000000000     -3.452463000000000     -2.002325000000000
C      -0.242305000000000     -4.261988000000000      0.128896000000000
C       0.176729000000000     -3.975887000000000      1.504868000000000
C       2.098086000000000     -2.610953000000000      2.328444000000000
C      -0.536479000000000     -3.227599000000000     -2.472660000000000
C      -1.553652000000000     -3.943078000000000     -0.314114000000000
C      -0.719429000000000     -3.351685000000000      2.417252000000000
C       1.227587000000000     -2.068616000000000      3.289539000000000
C      -2.490869000000000     -3.449161000000000      0.638742000000000
C      -2.061791000000000     -3.138105000000000      2.009014000000000
C      -3.498861000000000     -2.531372000000000      0.267523000000000
C      -2.796854000000000     -2.015925000000000      2.466265000000000
C      -4.033449000000000     -0.609084000000000     -1.235948000000000
C      -2.589760000000000      0.413127000000000      3.075388000000000
C      -4.318259000000000      0.173005000000000     -0.078833000000000
C      -3.610169000000000      0.667510000000000      2.129487000000000
C      -4.116819000000000     -0.376277000000000      1.251511000000000
C      -3.730188000000000     -1.675722000000000      1.417445000000000
C      -3.425365000000000      2.262184000000000     -1.096023000000000
C      -2.759405000000000      2.884544000000000      1.631081000000000
C      -2.459928000000000      3.335464000000000     -0.805037000000000
C      -2.162045000000000      3.648780000000000      0.543729000000000
C      -1.413839000000000      3.583838000000000     -1.735587000000000
C      -0.850135000000000      4.032127000000000      0.957418000000000
C      -0.093611000000000      3.925664000000000     -1.320613000000000
C       0.245061000000000      4.092237000000000      0.042927000000000
C       0.850151000000000      3.329445000000000     -2.254497000000000
C       1.591709000000000      3.723335000000000      0.490045000000000
C       2.147249000000000      2.948477000000000     -1.854842000000000
C       2.559445000000000      3.174731000000000     -0.465156000000000
C       2.730090000000000      1.880592000000000     -2.602567000000000
C       3.611384000000000      2.364327000000000      0.032698000000000
C       3.770003000000000      1.060015000000000     -2.041724000000000
C       4.199801000000000      1.297667000000000     -0.751733000000000
C       3.583026000000000     -0.298723000000000     -2.515245000000000
C       4.472893000000000      0.176440000000000      0.137671000000000
C       3.866063000000000     -1.371115000000000     -1.681676000000000
C       4.315907000000000     -1.124021000000000     -0.314247000000000
C       3.017742000000000     -2.513509000000000     -1.688804000000000
C       3.726142000000000     -2.103995000000000      0.541503000000000
C       0.877816000000000     -4.088629000000000     -0.719120000000000
C       1.554798000000000     -3.651055000000000      1.498271000000000
C       3.035498000000000     -3.045887000000000     -0.333765000000000
C       2.006088000000000     -3.803433000000000      0.134473000000000
C      -4.023702000000000      1.563280000000000     -0.012020000000000
C      -3.654080000000000      1.875196000000000      1.364305000000000
