94

C      -1.047411000000000      3.146803000000000     -1.913176000000000
C      -4.482820000000000     -0.172753000000000     -1.556000000000000
C       1.874065000000000     -2.311727000000000      3.164333000000000
C      -2.340075000000000     -3.667580000000000      2.048029000000000
C      -0.458741000000000      1.968132000000000     -2.686286000000000
C      -4.061680000000000      1.126279000000000     -0.869220000000000
C       2.189783000000000     -3.222308000000000      2.101662000000000
C      -1.779325000000000     -2.880636000000000      3.145869000000000
C      -1.302374000000000      0.920336000000000     -3.174900000000000
C      -4.053530000000000      1.368753000000000      0.493328000000000
C      -2.287969000000000     -1.633968000000000      3.511586000000000
C       1.196935000000000     -4.049950000000000      1.505589000000000
C      -2.671483000000000      0.860302000000000     -2.730121000000000
C      -0.059160000000000     -4.060165000000000      2.153487000000000
C      -3.146961000000000      1.787368000000000     -1.713983000000000
C      -0.371134000000000     -3.171351000000000      3.216135000000000
C      -2.336265000000000      2.787668000000000     -1.234255000000000
C       0.553556000000000     -2.200232000000000      3.676135000000000
C      -2.347408000000000      3.092721000000000      0.130530000000000
C       0.065765000000000     -0.907018000000000      4.104885000000000
C      -1.058751000000000      3.804358000000000      0.505849000000000
C       0.986077000000000      0.168529000000000      4.021170000000000
C      -0.204954000000000      3.543922000000000     -0.717210000000000
C       2.302705000000000      0.034424000000000      3.478659000000000
C       1.098071000000000      3.296997000000000     -0.647462000000000
C       2.738796000000000     -1.181879000000000      3.061118000000000
C       1.843846000000000      2.617605000000000     -1.769145000000000
C       3.723644000000000     -1.359421000000000      1.920809000000000
C       0.940119000000000      1.807322000000000     -2.680693000000000
C       3.267940000000000     -2.681904000000000      1.343360000000000
C       1.492445000000000      0.667603000000000     -3.254769000000000
C       3.362949000000000     -2.971810000000000      0.021989000000000
C       0.678965000000000     -0.346880000000000     -3.786421000000000
C       2.409970000000000     -3.842015000000000     -0.601787000000000
C      -0.738845000000000     -0.299988000000000     -3.686494000000000
C       1.276137000000000     -4.352753000000000      0.085311000000000
C      -1.478176000000000     -1.558096000000000     -3.609168000000000
C       0.052967000000000     -4.626043000000000     -0.675950000000000
C      -2.794681000000000     -1.570097000000000     -2.991450000000000
C      -3.993816000000000     -2.555745000000000     -1.018851000000000
C      -3.488178000000000     -3.506904000000000     -0.079644000000000
C      -1.246170000000000     -4.597726000000000      0.014114000000000
C      -3.376551000000000     -0.319018000000000     -2.619587000000000
C      -4.516309000000000     -1.333500000000000     -0.594744000000000
C      -3.448540000000000     -3.192151000000000      1.297422000000000
C      -1.276436000000000     -4.351967000000000      1.422479000000000
C      -4.606500000000000     -1.082634000000000      0.784108000000000
C      -4.039340000000000     -1.969946000000000      1.707313000000000
C      -4.655790000000000      0.315003000000000      1.405657000000000
C      -3.501635000000000     -1.210530000000000      2.842410000000000
C      -3.163618000000000      2.372487000000000      1.022041000000000
C      -1.371422000000000     -0.608804000000000      4.024868000000000
C      -2.674627000000000      2.255801000000000      2.379230000000000
C      -1.778620000000000      0.732465000000000      3.899987000000000
C      -2.965475000000000      1.118090000000000      3.151710000000000
C      -3.824329000000000      0.118683000000000      2.663494000000000
C      -0.441361000000000      3.245260000000000      1.770525000000000
C       0.534817000000000      1.501172000000000      3.741909000000000
C       0.959450000000000      2.969981000000000      1.847279000000000
C       1.438821000000000      2.135841000000000      2.848107000000000
C       1.859789000000000      3.201053000000000      0.654385000000000
C       2.724361000000000      1.312026000000000      2.777051000000000
C       2.708505000000000      1.970132000000000      0.378076000000000
C       3.091152000000000      1.023721000000000      1.328299000000000
C       2.730698000000000      1.668208000000000     -0.978992000000000
C       3.540542000000000     -0.239084000000000      0.887814000000000
C       3.172247000000000      0.427793000000000     -1.437730000000000
C       3.600032000000000     -0.534511000000000     -0.499287000000000
C       2.873537000000000      0.101636000000000     -2.890991000000000
C       3.913365000000000     -1.963117000000000     -0.972599000000000
C       2.660247000000000     -1.377882000000000     -3.096042000000000
C       3.128232000000000     -2.316260000000000     -2.222255000000000
C       1.410965000000000     -1.591754000000000     -3.764499000000000
C       2.356400000000000     -3.508419000000000     -1.993789000000000
C       0.716488000000000     -2.776757000000000     -3.637912000000000
C       1.200675000000000     -3.769412000000000     -2.714559000000000
C      -0.727289000000000     -2.769604000000000     -3.587916000000000
C       0.062060000000000     -4.367436000000000     -2.068098000000000
C      -3.212840000000000     -2.703667000000000     -2.258785000000000
C      -2.412776000000000     -4.242032000000000     -0.702295000000000
C      -1.115131000000000     -3.848466000000000     -2.737524000000000
C      -2.329969000000000     -3.795633000000000     -2.068720000000000
C      -1.314954000000000      2.676541000000000      2.698120000000000
C      -0.816229000000000      1.776452000000000      3.689923000000000
Cl      5.464731000000000     -1.399203000000000      2.510494000000000
Cl      5.730135000000000     -2.131667000000000     -1.237054000000000
Cl      4.214888000000000      0.735967000000000     -3.985015000000000
Cl      2.813653000000000      3.849192000000000     -2.742613000000000
Cl     -6.393927000000000      0.787366000000000      1.831943000000000
Cl     -6.142097000000000      0.036638000000000     -2.360304000000000
Cl     -1.279109000000000      4.577554000000000     -3.078595000000000
Cl      4.121566000000000      2.167435000000000      3.625702000000000
Cl      2.913729000000000      4.694568000000000      0.931863000000000
Cl     -1.355619000000000      5.628057000000000      0.733162000000000
