96

C       0.076812000000000      2.645777000000000     -3.070933000000000
C      -3.972699000000000      0.506847000000000     -2.173605000000000
C       1.637408000000000     -0.974117000000000      3.564012000000000
C      -2.854118000000000     -1.962914000000000      2.766232000000000
C       0.430403000000000      1.366435000000000     -3.592111000000000
C      -3.325386000000000      1.871064000000000     -1.941389000000000
C       1.801331000000000     -2.262843000000000      2.896610000000000
C      -2.030979000000000     -0.853828000000000      3.430014000000000
C      -0.609825000000000      0.363608000000000     -3.779153000000000
C      -3.288050000000000      2.572174000000000     -0.743691000000000
C      -2.290403000000000      0.543376000000000      3.276671000000000
C       0.675289000000000     -3.039793000000000      2.499685000000000
C      -1.959601000000000      0.717256000000000     -3.454314000000000
C      -0.579650000000000     -2.603800000000000      2.968928000000000
C      -2.274571000000000      2.009154000000000     -2.871009000000000
C      -0.752106000000000     -1.314613000000000      3.651716000000000
C      -1.278735000000000      2.933882000000000     -2.664434000000000
C       0.362012000000000     -0.442692000000000      3.861156000000000
C      -1.281077000000000      3.742594000000000     -1.505915000000000
C       0.142134000000000      0.976045000000000      3.777689000000000
C       0.140020000000000      4.281991000000000     -1.296850000000000
C       1.276602000000000      1.765520000000000      3.435784000000000
C       0.936558000000000      3.415405000000000     -2.264217000000000
C       2.531708000000000      1.202450000000000      3.110932000000000
C       2.199291000000000      2.933879000000000     -1.971726000000000
C       2.718823000000000     -0.153322000000000      3.185069000000000
C       2.621666000000000      1.722734000000000     -2.528394000000000
C       3.682813000000000     -0.908234000000000      2.283656000000000
C       1.791941000000000      0.942157000000000     -3.375904000000000
C       2.970936000000000     -2.237114000000000      2.140391000000000
C       2.100822000000000     -0.429579000000000     -3.485171000000000
C       3.047030000000000     -3.006341000000000      0.989598000000000
C       1.108530000000000     -1.377591000000000     -3.709852000000000
C       1.990045000000000     -3.840146000000000      0.607664000000000
C      -0.285494000000000     -1.032011000000000     -3.776081000000000
C       0.726721000000000     -3.823642000000000      1.294249000000000
C      -1.259233000000000     -2.011456000000000     -3.320099000000000
C      -0.494887000000000     -4.098244000000000      0.584136000000000
C      -2.561501000000000     -1.572641000000000     -2.872237000000000
C      -3.942984000000000     -1.575777000000000     -0.796099000000000
C      -3.706909000000000     -2.208187000000000      0.441147000000000
C      -1.728778000000000     -3.628070000000000      1.093074000000000
C      -2.897627000000000     -0.205385000000000     -3.009528000000000
C      -4.225761000000000     -0.205259000000000     -0.877184000000000
C      -3.657770000000000     -1.459421000000000      1.608377000000000
C      -1.758441000000000     -2.935782000000000      2.313142000000000
C      -4.292532000000000      0.519949000000000      0.308125000000000
C      -3.963433000000000     -0.091474000000000      1.533700000000000
C      -4.116707000000000      2.033711000000000      0.411254000000000
C      -3.345847000000000      0.908799000000000      2.404031000000000
C      -2.235628000000000      3.532463000000000     -0.522087000000000
C      -1.196137000000000      1.475562000000000      3.463585000000000
C      -1.908603000000000      4.040118000000000      0.868162000000000
C      -1.309386000000000      2.736620000000000      2.816801000000000
C      -2.370496000000000      3.060775000000000      1.939542000000000
C      -3.373155000000000      2.146648000000000      1.729495000000000
C       0.593803000000000      4.073107000000000      0.133671000000000
C       1.123768000000000      2.966411000000000      2.653986000000000
C       1.904342000000000      3.563476000000000      0.441806000000000
C       2.167816000000000      3.067897000000000      1.709068000000000
C       2.888439000000000      3.188586000000000     -0.644209000000000
C       3.253888000000000      2.045901000000000      2.072982000000000
C       3.504112000000000      1.809885000000000     -0.374718000000000
C       3.624531000000000      1.199065000000000      0.863870000000000
C       3.458635000000000      1.036505000000000     -1.540589000000000
C       3.784570000000000     -0.213733000000000      0.925011000000000
C       3.638893000000000     -0.346117000000000     -1.514104000000000
C       3.820227000000000     -0.984649000000000     -0.267089000000000
C       3.312935000000000     -1.076983000000000     -2.803472000000000
C       3.838019000000000     -2.521796000000000     -0.214373000000000
C       2.806116000000000     -2.474732000000000     -2.537324000000000
C       3.036115000000000     -3.128922000000000     -1.356474000000000
C       1.558987000000000     -2.655847000000000     -3.198250000000000
C       2.032873000000000     -4.007296000000000     -0.832940000000000
C       0.625563000000000     -3.558184000000000     -2.717666000000000
C       0.881856000000000     -4.292079000000000     -1.531405000000000
C      -0.784839000000000     -3.256267000000000     -2.799476000000000
C      -0.425409000000000     -4.639892000000000     -0.846184000000000
C      -3.202883000000000     -2.297731000000000     -1.827177000000000
C      -2.981632000000000     -3.536404000000000      0.225153000000000
C      -1.428889000000000     -3.916606000000000     -1.734546000000000
C      -2.617851000000000     -3.425852000000000     -1.241781000000000
C      -0.393801000000000      4.051990000000000      1.108403000000000
C      -0.136827000000000      3.441469000000000      2.355335000000000
Cl      0.247030000000000      6.072836000000000     -1.744149000000000
Cl     -2.634711000000000      5.720255000000000      1.122232000000000
Cl      4.194981000000000      4.481936000000000     -0.801741000000000
Cl      4.749429000000000      2.869810000000000      2.761470000000000
Cl      5.349184000000000     -1.073762000000000      3.050717000000000
Cl      5.582990000000000     -3.110031000000000     -0.213565000000000
Cl     -5.751147000000000      2.888914000000000      0.475365000000000
Cl     -5.549630000000000      0.682106000000000     -3.138296000000000
Cl     -4.095157000000000     -4.960553000000000      0.573923000000000
Cl     -3.961729000000000     -2.774645000000000      4.013146000000000
Cl      4.795302000000000     -1.080864000000000     -3.916066000000000
Cl     -0.711394000000000     -6.477387000000000     -0.827794000000000
