96

C       0.008232000000000      2.382013000000000     -2.906827000000000
C      -4.078449000000000      0.274519000000000     -2.009622000000000
C       1.519256000000000     -1.267115000000000      3.716294000000000
C      -2.970633000000000     -2.203387000000000      2.918071000000000
C       0.352253000000000      1.116060000000000     -3.414913000000000
C      -3.391651000000000      1.617074000000000     -1.760935000000000
C       1.667377000000000     -2.560288000000000      3.044714000000000
C      -2.142447000000000     -1.111295000000000      3.599216000000000
C      -0.704549000000000      0.122929000000000     -3.599687000000000
C      -3.349327000000000      2.317124000000000     -0.570467000000000
C      -2.390828000000000      0.288462000000000      3.445157000000000
C       0.551857000000000     -3.343891000000000      2.666548000000000
C      -2.030165000000000      0.483443000000000     -3.279904000000000
C      -0.719169000000000     -2.894903000000000      3.139608000000000
C      -2.330987000000000      1.742680000000000     -2.693002000000000
C      -0.871366000000000     -1.589758000000000      3.814266000000000
C      -1.313641000000000      2.667345000000000     -2.485033000000000
C       0.249601000000000     -0.725814000000000      4.019790000000000
C      -1.321113000000000      3.471976000000000     -1.312347000000000
C       0.042180000000000      0.695269000000000      3.945597000000000
C       0.090491000000000      4.014036000000000     -1.093308000000000
C       1.183694000000000      1.479835000000000      3.607405000000000
C       0.903051000000000      3.142295000000000     -2.042314000000000
C       2.429647000000000      0.909192000000000      3.278040000000000
C       2.148744000000000      2.729747000000000     -1.788900000000000
C       2.602257000000000     -0.451666000000000      3.339497000000000
C       2.741477000000000      1.560219000000000     -2.535219000000000
C       3.558370000000000     -1.198413000000000      2.427854000000000
C       1.717868000000000      0.676099000000000     -3.230135000000000
C       2.843555000000000     -2.524339000000000      2.275823000000000
C       1.999331000000000     -0.656558000000000     -3.331734000000000
C       2.917973000000000     -3.270825000000000      1.127104000000000
C       0.975893000000000     -1.633939000000000     -3.569439000000000
C       1.841802000000000     -4.102025000000000      0.742984000000000
C      -0.398286000000000     -1.285052000000000     -3.610221000000000
C       0.604489000000000     -4.130023000000000      1.462552000000000
C      -1.389015000000000     -2.261679000000000     -3.164689000000000
C      -0.630513000000000     -4.407014000000000      0.735973000000000
C      -2.689063000000000     -1.793474000000000     -2.704633000000000
C      -4.131109000000000     -1.813248000000000     -0.651832000000000
C      -3.806646000000000     -2.422550000000000      0.576474000000000
C      -1.893653000000000     -3.910403000000000      1.256725000000000
C      -2.995006000000000     -0.466159000000000     -2.816157000000000
C      -4.374047000000000     -0.441171000000000     -0.720287000000000
C      -3.759643000000000     -1.681412000000000      1.756535000000000
C      -1.896560000000000     -3.214079000000000      2.501140000000000
C      -4.412534000000000      0.292428000000000      0.468729000000000
C      -4.069022000000000     -0.322153000000000      1.688585000000000
C      -4.196902000000000      1.798550000000000      0.577030000000000
C      -3.442596000000000      0.668053000000000      2.572418000000000
C      -2.281486000000000      3.269763000000000     -0.342001000000000
C      -1.289737000000000      1.209307000000000      3.636388000000000
C      -1.971089000000000      3.787464000000000      1.049118000000000
C      -1.391329000000000      2.476213000000000      2.994628000000000
C      -2.443975000000000      2.809897000000000      2.116552000000000
C      -3.454971000000000      1.901399000000000      1.899118000000000
C       0.535301000000000      3.833604000000000      0.338792000000000
C       1.044528000000000      2.694630000000000      2.841826000000000
C       1.841297000000000      3.318166000000000      0.640472000000000
C       2.093782000000000      2.801740000000000      1.902270000000000
C       2.819077000000000      2.938909000000000     -0.456805000000000
C       3.157978000000000      1.753981000000000      2.245614000000000
C       3.371738000000000      1.536444000000000     -0.219637000000000
C       3.491755000000000      0.913833000000000      1.022508000000000
C       3.374318000000000      0.786933000000000     -1.391192000000000
C       3.656739000000000     -0.488101000000000      1.071632000000000
C       3.532844000000000     -0.597045000000000     -1.369666000000000
C       3.696925000000000     -1.246957000000000     -0.128536000000000
C       3.203672000000000     -1.334569000000000     -2.659598000000000
C       3.705606000000000     -2.783234000000000     -0.078836000000000
C       2.663626000000000     -2.716134000000000     -2.386652000000000
C       2.899856000000000     -3.378853000000000     -1.219710000000000
C       1.411680000000000     -2.890953000000000     -3.069630000000000
C       1.880279000000000     -4.246020000000000     -0.689363000000000
C       0.463544000000000     -3.813396000000000     -2.622278000000000
C       0.712697000000000     -4.503273000000000     -1.379489000000000
C      -0.927622000000000     -3.522227000000000     -2.709022000000000
C      -0.540370000000000     -4.622587000000000     -0.672145000000000
C      -3.564714000000000     -2.645364000000000     -1.794926000000000
C      -2.930042000000000     -3.578327000000000      0.338410000000000
C      -1.562463000000000     -4.159711000000000     -1.554989000000000
C      -2.749507000000000     -3.677107000000000     -1.042336000000000
C      -0.458987000000000      3.807031000000000      1.306270000000000
C      -0.211788000000000      3.181922000000000      2.546681000000000
Cl      0.197932000000000      5.790044000000000     -1.593525000000000
Cl     -2.709481000000000      5.464051000000000      1.285842000000000
Cl      4.186852000000000      4.183415000000000     -0.538958000000000
Cl      4.684734000000000      2.525732000000000      2.923965000000000
Cl      5.229174000000000     -1.375168000000000      3.172368000000000
Cl      5.447921000000000     -3.382634000000000     -0.078149000000000
Cl     -5.802110000000000      2.715788000000000      0.636811000000000
Cl     -5.602334000000000      0.502135000000000     -3.024203000000000
Cl     -4.898616000000000     -3.459366000000000     -2.793621000000000
Cl      4.677185000000000     -1.410810000000000     -3.760483000000000
Cl      4.002472000000000      2.163918000000000     -3.760754000000000
Cl     -4.130073000000000     -2.982079000000000      4.150946000000000
