96

C      -0.479343000000000      2.740205000000000      2.675509000000000
C       3.817615000000000      0.919153000000000      2.387119000000000
C      -1.042101000000000     -1.749374000000000     -3.577556000000000
C       3.425941000000000     -2.189756000000000     -2.285502000000000
C      -0.765680000000000      1.504136000000000      3.294001000000000
C       3.063851000000000      2.163744000000000      1.927185000000000
C      -1.154539000000000     -2.956721000000000     -2.770844000000000
C       2.569442000000000     -1.252930000000000     -3.142347000000000
C       0.341061000000000      0.640651000000000      3.698352000000000
C       3.085259000000000      2.716650000000000      0.659555000000000
C       2.686302000000000      0.173672000000000     -3.147185000000000
C      -0.006964000000000     -3.586298000000000     -2.199884000000000
C       1.666982000000000      1.083233000000000      3.453000000000000
C       1.242547000000000     -3.082010000000000     -2.612188000000000
C       1.916799000000000      2.300776000000000      2.745216000000000
C       1.363941000000000     -1.865369000000000     -3.417489000000000
C       0.853561000000000      3.092192000000000      2.336682000000000
C       0.205385000000000     -1.133655000000000     -3.828490000000000
C       0.908920000000000      3.755116000000000      1.080225000000000
C       0.290265000000000      0.299691000000000     -3.907582000000000
C      -0.513600000000000      4.137858000000000      0.677241000000000
C      -0.937153000000000      1.009569000000000     -3.765308000000000
C      -1.339663000000000      3.306556000000000      1.651290000000000
C      -2.164234000000000      0.368503000000000     -3.482570000000000
C      -2.519403000000000      2.755843000000000      1.338614000000000
C      -2.222664000000000     -0.997036000000000     -3.398796000000000
C      -3.083807000000000      1.628402000000000      2.163458000000000
C      -3.198974000000000     -1.725174000000000     -2.491185000000000
C      -2.065730000000000      0.925854000000000      3.045513000000000
C      -2.396394000000000     -2.955415000000000     -2.125393000000000
C      -2.249908000000000     -0.410152000000000      3.282900000000000
C      -2.510677000000000     -3.572696000000000     -0.898552000000000
C      -1.187253000000000     -1.253988000000000      3.732183000000000
C      -1.415052000000000     -4.244907000000000     -0.324167000000000
C       0.144394000000000     -0.777283000000000      3.863029000000000
C      -0.107491000000000     -4.226545000000000     -0.914002000000000
C       1.248252000000000     -1.707374000000000      3.631650000000000
C       1.064838000000000     -4.302945000000000     -0.060440000000000
C       2.547563000000000     -1.183134000000000      3.225003000000000
C       4.128625000000000     -1.289495000000000      1.275745000000000
C       4.086897000000000     -2.082257000000000      0.111376000000000
C       2.309134000000000     -3.762933000000000     -0.536171000000000
C       2.743646000000000      0.195493000000000      3.211736000000000
C       4.277557000000000      0.097949000000000      1.217654000000000
C       4.077968000000000     -1.480901000000000     -1.137312000000000
C       2.383976000000000     -3.212075000000000     -1.810519000000000
C       4.398697000000000      0.688580000000000     -0.042437000000000
C       4.245048000000000     -0.087843000000000     -1.201707000000000
C       4.079408000000000      2.152394000000000     -0.341655000000000
C       3.612587000000000      0.741015000000000     -2.238516000000000
C       1.972186000000000      3.534637000000000      0.226397000000000
C       1.540492000000000      0.962587000000000     -3.545796000000000
C       1.757382000000000      3.865089000000000     -1.237403000000000
C       1.476594000000000      2.298640000000000     -3.056484000000000
C       2.407970000000000      2.821302000000000     -2.136409000000000
C       3.465237000000000      2.039952000000000     -1.725157000000000
C      -0.801736000000000      3.758884000000000     -0.756350000000000
C      -0.972834000000000      2.308352000000000     -3.141059000000000
C      -2.026191000000000      3.096510000000000     -1.106383000000000
C      -2.113225000000000      2.423128000000000     -2.315814000000000
C      -3.070510000000000      2.753593000000000     -0.060924000000000
C      -3.053659000000000      1.253591000000000     -2.624140000000000
C      -3.485295000000000      1.289911000000000     -0.178763000000000
C      -3.435104000000000      0.526418000000000     -1.343655000000000
C      -3.539838000000000      0.678376000000000      1.069725000000000
C      -3.479743000000000     -0.882578000000000     -1.240792000000000
C      -3.582414000000000     -0.708205000000000      1.198600000000000
C      -3.571356000000000     -1.503821000000000      0.032693000000000
C      -3.325140000000000     -1.263535000000000      2.591602000000000
C      -3.451862000000000     -3.030322000000000      0.165762000000000
C      -2.652001000000000     -2.610969000000000      2.534125000000000
C      -2.717110000000000     -3.418889000000000      1.436175000000000
C      -1.466825000000000     -2.599522000000000      3.343786000000000
C      -1.581658000000000     -4.232595000000000      1.105451000000000
C      -0.417195000000000     -3.476752000000000      3.097110000000000
C      -0.471550000000000     -4.314327000000000      1.928637000000000
C       0.937474000000000     -3.040890000000000      3.260605000000000
C       0.856990000000000     -4.405792000000000      1.370503000000000
C       3.354916000000000     -1.967654000000000      2.326057000000000
C       3.443130000000000     -3.430872000000000      0.429537000000000
C       1.729830000000000     -3.747232000000000      2.275730000000000
C       2.932269000000000     -3.183190000000000      1.834353000000000
C       0.280446000000000      3.718709000000000     -1.625390000000000
C       0.206195000000000      2.938226000000000     -2.797389000000000
Cl     -0.812725000000000      5.942143000000000      0.943579000000000
Cl      2.381845000000000      5.562224000000000     -1.612198000000000
Cl     -4.539027000000000      3.868919000000000     -0.252120000000000
Cl     -4.561551000000000      1.804496000000000     -3.522258000000000
Cl     -4.769587000000000     -2.129919000000000     -3.354512000000000
Cl     -5.128681000000000     -3.785213000000000      0.075126000000000
Cl      5.613317000000000      3.179446000000000     -0.364808000000000
Cl      5.265486000000000      1.397819000000000      3.456821000000000
Cl      4.695389000000000     -4.795130000000000      0.387271000000000
Cl      4.703394000000000     -3.025408000000000     -3.339684000000000
Cl     -4.891938000000000     -1.356251000000000      3.554654000000000
Cl     -4.510638000000000      2.245205000000000      3.194700000000000
