96

C       0.444639000000000      3.293335000000000      2.037082000000000
C       3.992185000000000      0.097608000000000      2.326985000000000
C      -1.463071000000000     -2.456822000000000     -3.164388000000000
C       2.671567000000000     -3.819117000000000     -1.504677000000000
C      -0.216063000000000      2.121881000000000      2.763079000000000
C       3.636495000000000      1.354194000000000      1.534667000000000
C      -1.922358000000000     -3.357158000000000     -2.107267000000000
C       2.134277000000000     -2.925078000000000     -2.626343000000000
C       0.576871000000000      1.123374000000000      3.413599000000000
C       3.820514000000000      1.546124000000000      0.168340000000000
C       2.671091000000000     -1.644349000000000     -2.949409000000000
C      -1.029463000000000     -4.125129000000000     -1.330868000000000
C       1.998054000000000      1.097453000000000      3.182935000000000
C       0.339253000000000     -4.116299000000000     -1.753478000000000
C       2.587995000000000      2.002035000000000      2.202804000000000
C       0.802587000000000     -3.214860000000000     -2.823381000000000
C       1.824617000000000      2.949395000000000      1.567123000000000
C      -0.091337000000000     -2.304582000000000     -3.468254000000000
C       2.031727000000000      3.203153000000000      0.207395000000000
C       0.413807000000000     -1.021142000000000     -3.875637000000000
C       0.805434000000000      3.886568000000000     -0.375504000000000
C      -0.548759000000000      0.024917000000000     -3.987815000000000
C      -0.218720000000000      3.623215000000000      0.714262000000000
C      -1.905786000000000     -0.147383000000000     -3.645027000000000
C      -1.486271000000000      3.319645000000000      0.461041000000000
C      -2.364290000000000     -1.377844000000000     -3.245350000000000
C      -2.370374000000000      2.649291000000000      1.484851000000000
C      -3.511146000000000     -1.546234000000000     -2.266367000000000
C      -1.592333000000000      1.908689000000000      2.557560000000000
C      -3.113057000000000     -2.827409000000000     -1.565401000000000
C      -2.189623000000000      0.772579000000000      3.091855000000000
C      -3.415642000000000     -3.068407000000000     -0.254152000000000
C      -1.433291000000000     -0.192008000000000      3.779880000000000
C      -2.567331000000000     -3.879684000000000      0.541994000000000
C      -0.018948000000000     -0.098147000000000      3.885379000000000
C      -1.321152000000000     -4.383596000000000      0.054996000000000
C       0.761366000000000     -1.332158000000000      3.965058000000000
C      -0.220378000000000     -4.586152000000000      0.994559000000000
C       2.156229000000000     -1.317632000000000      3.545712000000000
C       3.644666000000000     -2.315590000000000      1.813931000000000
C       3.309675000000000     -3.306912000000000      0.846158000000000
C       1.165329000000000     -4.558257000000000      0.501689000000000
C       2.746565000000000     -0.057097000000000      3.222134000000000
C       4.186443000000000     -1.083553000000000      1.418663000000000
C       3.493638000000000     -3.055410000000000     -0.509714000000000
C       1.383418000000000     -4.393111000000000     -0.900655000000000
C       4.468632000000000     -0.878748000000000      0.072466000000000
C       4.080492000000000     -1.842887000000000     -0.888312000000000
C       4.600141000000000      0.485841000000000     -0.593065000000000
C       3.729113000000000     -1.162538000000000     -2.130733000000000
C       2.995089000000000      2.491932000000000     -0.511499000000000
C       1.805667000000000     -0.677210000000000     -3.596667000000000
C       2.882995000000000      2.509191000000000     -2.020358000000000
C       2.142932000000000      0.695845000000000     -3.440637000000000
C       3.194347000000000      1.136343000000000     -2.604463000000000
C       3.973537000000000      0.213912000000000     -1.950446000000000
C       0.413079000000000      3.262197000000000     -1.696159000000000
C      -0.192856000000000      1.389754000000000     -3.688404000000000
C      -0.950739000000000      2.913234000000000     -1.965795000000000
C      -1.242365000000000      2.023961000000000     -2.988776000000000
C      -2.033551000000000      3.142721000000000     -0.935208000000000
C      -2.487767000000000      1.136669000000000     -3.076641000000000
C      -2.863178000000000      1.882189000000000     -0.737510000000000
C      -3.057875000000000      0.882784000000000     -1.690138000000000
C      -3.087970000000000      1.632847000000000      0.611299000000000
C      -3.525645000000000     -0.380492000000000     -1.268458000000000
C      -3.554021000000000      0.394817000000000      1.052348000000000
C      -3.796194000000000     -0.621809000000000      0.104701000000000
C      -3.479405000000000      0.140645000000000      2.548350000000000
C      -4.147915000000000     -2.037588000000000      0.590317000000000
C      -3.255274000000000     -1.320832000000000      2.851332000000000
C      -3.563218000000000     -2.311903000000000      1.964447000000000
C      -2.115298000000000     -1.462374000000000      3.707552000000000
C      -2.732417000000000     -3.484172000000000      1.913257000000000
C      -1.374428000000000     -2.626494000000000      3.738305000000000
C      -1.690491000000000     -3.673602000000000      2.804493000000000
C       0.060966000000000     -2.569404000000000      3.893681000000000
C      -0.446070000000000     -4.255146000000000      2.356026000000000
C       2.711472000000000     -2.455837000000000      2.921582000000000
C       2.197083000000000     -4.118276000000000      1.360716000000000
C       0.600073000000000     -3.667743000000000      3.152406000000000
C       1.898486000000000     -3.601329000000000      2.649399000000000
C       1.428928000000000      2.701182000000000     -2.457507000000000
C       1.121214000000000      1.715923000000000     -3.421359000000000
Cl      1.091370000000000      5.702527000000000     -0.588291000000000
Cl      3.975488000000000      3.816443000000000     -2.734157000000000
Cl     -3.098956000000000      4.567929000000000     -1.435791000000000
Cl     -3.773988000000000      1.870840000000000     -4.169073000000000
Cl     -5.134803000000000     -1.673965000000000     -3.116927000000000
Cl     -5.975770000000000     -2.257751000000000      0.560867000000000
Cl     -4.996495000000000      0.762021000000000      3.388415000000000
Cl     -3.523482000000000      3.871590000000000      2.244859000000000
Cl      6.366483000000000      1.002754000000000     -0.756691000000000
Cl      5.506638000000000      0.381584000000000      3.358009000000000
Cl      0.462047000000000      4.767292000000000      3.170468000000000
Cl      3.699131000000000     -5.187476000000000     -2.237190000000000
