96

C       0.847784000000000      2.347708000000000      2.831139000000000
C       4.313631000000000     -0.604086000000000      1.312462000000000
C      -2.128646000000000     -1.175566000000000     -3.717565000000000
C       2.118939000000000     -2.733234000000000     -3.219316000000000
C       0.286650000000000      0.969796000000000      3.171252000000000
C       3.845635000000000      0.837876000000000      1.110577000000000
C      -2.427915000000000     -2.395121000000000     -3.026823000000000
C       1.537170000000000     -1.678196000000000     -3.954036000000000
C       1.167833000000000     -0.176426000000000      3.252382000000000
C       3.800348000000000      1.535163000000000     -0.095061000000000
C       2.033582000000000     -0.337676000000000     -3.890029000000000
C      -1.423374000000000     -3.368336000000000     -2.767595000000000
C       2.505273000000000     -0.051956000000000      2.798167000000000
C      -0.176875000000000     -3.149198000000000     -3.403989000000000
C       2.950164000000000      1.162090000000000      2.141602000000000
C       0.119756000000000     -1.941178000000000     -4.089845000000000
C       2.116998000000000      2.252805000000000      2.041352000000000
C      -0.814438000000000     -0.882724000000000     -4.179739000000000
C       2.092792000000000      2.992905000000000      0.857901000000000
C      -0.340991000000000      0.489316000000000     -4.150996000000000
C       0.801322000000000      3.794357000000000      0.782323000000000
C      -1.264320000000000      1.458668000000000     -3.703425000000000
C      -0.026014000000000      3.115131000000000      1.859266000000000
C      -2.571105000000000      1.133626000000000     -3.218389000000000
C      -1.325921000000000      2.873808000000000      1.733252000000000
C      -2.998429000000000     -0.154135000000000     -3.229381000000000
C      -2.034094000000000      1.837350000000000      2.573013000000000
C      -3.960964000000000     -0.713227000000000     -2.199248000000000
C      -1.094757000000000      0.787347000000000      3.137131000000000
C      -3.490107000000000     -2.148813000000000     -2.106887000000000
C      -1.619006000000000     -0.504024000000000      3.301163000000000
C      -3.561829000000000     -2.867446000000000     -0.959484000000000
C      -0.783061000000000     -1.614395000000000      3.432982000000000
C      -2.587149000000000     -3.885560000000000     -0.686201000000000
C       0.631366000000000     -1.508583000000000      3.315127000000000
C      -1.471926000000000     -4.127133000000000     -1.535187000000000
C       1.382555000000000     -2.639172000000000      2.792342000000000
C      -0.223472000000000     -4.608729000000000     -0.934922000000000
C       2.660394000000000     -2.407111000000000      2.205051000000000
C       3.859890000000000     -2.679019000000000     -0.000814000000000
C       3.301580000000000     -3.233092000000000     -1.160667000000000
C       1.049155000000000     -4.312370000000000     -1.599231000000000
C       3.215399000000000     -1.132651000000000      2.257317000000000
C       4.341869000000000     -1.364081000000000      0.015966000000000
C       3.229423000000000     -2.495401000000000     -2.363070000000000
C       1.049636000000000     -3.636769000000000     -2.822620000000000
C       4.372159000000000     -0.653080000000000     -1.188573000000000
C       3.802347000000000     -1.202326000000000     -2.361269000000000
C       4.417869000000000      0.869146000000000     -1.311327000000000
C       3.235600000000000     -0.140345000000000     -3.161172000000000
C       2.899935000000000      2.633471000000000     -0.224862000000000
C       1.097524000000000      0.763385000000000     -4.000423000000000
C       2.524425000000000      3.196606000000000     -1.579785000000000
C       1.495773000000000      1.990773000000000     -3.419236000000000
C       2.701636000000000      2.147396000000000     -2.669347000000000
C       3.559810000000000      1.098515000000000     -2.542463000000000
C       0.168776000000000      3.674904000000000     -0.586364000000000
C      -0.825465000000000      2.624785000000000     -2.988013000000000
C      -1.230911000000000      3.394917000000000     -0.726883000000000
C      -1.719850000000000      2.926643000000000     -1.936053000000000
C      -2.112960000000000      3.197985000000000      0.485960000000000
C      -2.994345000000000      2.102070000000000     -2.127928000000000
C      -2.936718000000000      1.925549000000000      0.349209000000000
C      -3.331873000000000      1.342933000000000     -0.853830000000000
C      -2.924345000000000      1.186302000000000      1.527009000000000
C      -3.762052000000000     -0.000923000000000     -0.853827000000000
C      -3.342399000000000     -0.144540000000000      1.551051000000000
C      -3.787190000000000     -0.744471000000000      0.353852000000000
C      -3.004707000000000     -0.937135000000000      2.801829000000000
C      -4.084614000000000     -2.253882000000000      0.327308000000000
C      -2.773339000000000     -2.395938000000000      2.489700000000000
C      -3.260233000000000     -2.993886000000000      1.363678000000000
C      -1.500176000000000     -2.797666000000000      3.006536000000000
C      -2.488228000000000     -4.033447000000000      0.731625000000000
C      -0.798676000000000     -3.862429000000000      2.480008000000000
C      -1.309637000000000     -4.503180000000000      1.296027000000000
C       0.641716000000000     -3.822482000000000      2.398876000000000
C      -0.186411000000000     -4.825315000000000      0.460684000000000
C       3.274374000000000     -3.394437000000000      1.220818000000000
C       2.243087000000000     -4.171111000000000     -0.790572000000000
C       1.013382000000000     -4.544070000000000      1.237681000000000
C       2.214252000000000     -4.270979000000000      0.587609000000000
C       1.021009000000000      3.467771000000000     -1.660465000000000
C       0.525758000000000      2.885844000000000     -2.849528000000000
Cl      1.099502000000000      5.571055000000000      1.202212000000000
Cl      3.501207000000000      4.723180000000000     -1.932965000000000
Cl     -3.200773000000000      4.671452000000000      0.736226000000000
Cl     -4.416113000000000      3.160078000000000     -2.631355000000000
Cl     -5.714028000000000     -0.573681000000000     -2.734160000000000
Cl     -5.892312000000000     -2.519039000000000      0.579906000000000
Cl     -4.316194000000000     -0.733046000000000      4.078827000000000
Cl     -2.994075000000000      2.637781000000000      3.928069000000000
Cl      6.148167000000000      1.468870000000000     -1.551546000000000
Cl      5.960657000000000     -0.636326000000000      2.149472000000000
Cl      1.105607000000000      3.288522000000000      4.415578000000000
Cl      4.564218000000000     -4.399983000000000      2.085105000000000
