98

C       1.672720000000000      2.692365000000000     -2.578728000000000
C      -3.090829000000000      2.432963000000000     -2.224697000000000
C       0.256928000000000     -2.126594000000000      3.640383000000000
C      -4.011746000000000     -0.818750000000000      2.283785000000000
C       1.374527000000000      1.277063000000000     -3.070394000000000
C      -1.942484000000000      3.288761000000000     -1.693271000000000
C      -0.065662000000000     -3.257179000000000      2.771654000000000
C      -2.899509000000000     -0.304037000000000      3.204320000000000
C       0.057856000000000      0.918436000000000     -3.510397000000000
C      -1.796379000000000      3.751714000000000     -0.388603000000000
C      -2.481735000000000      1.061526000000000      3.279319000000000
C      -1.340793000000000     -3.373934000000000      2.148352000000000
C      -1.032647000000000      1.824330000000000     -3.271801000000000
C      -2.326993000000000     -2.462166000000000      2.573833000000000
C      -0.812083000000000      3.029769000000000     -2.481329000000000
C      -2.013890000000000     -1.327930000000000      3.454571000000000
C       0.445048000000000      3.364594000000000     -2.043040000000000
C      -0.677996000000000     -1.102849000000000      3.913758000000000
C       0.610014000000000      3.887317000000000     -0.756461000000000
C      -0.227464000000000      0.254761000000000      4.064733000000000
C       2.057845000000000      3.724179000000000     -0.322231000000000
C       1.178459000000000      0.462410000000000      3.970230000000000
C       2.555533000000000      2.718693000000000     -1.346134000000000
C       2.083963000000000     -0.576064000000000      3.660052000000000
C       3.381575000000000      1.723863000000000     -1.044421000000000
C       1.633993000000000     -1.862283000000000      3.508790000000000
C       3.525216000000000      0.504142000000000     -1.923307000000000
C       2.288303000000000     -2.860555000000000      2.567086000000000
C       2.332247000000000      0.275784000000000     -2.833889000000000
C       1.095945000000000     -3.687606000000000      2.135943000000000
C       2.027456000000000     -1.047742000000000     -3.142384000000000
C       1.004660000000000     -4.264965000000000      0.879024000000000
C       0.758172000000000     -1.406653000000000     -3.619955000000000
C      -0.237200000000000     -4.466838000000000      0.267183000000000
C      -0.291344000000000     -0.457876000000000     -3.734948000000000
C      -1.452223000000000     -3.948000000000000      0.833234000000000
C      -1.666217000000000     -0.915969000000000     -3.555252000000000
C      -2.539176000000000     -3.541728000000000     -0.019227000000000
C      -2.681806000000000      0.024679000000000     -3.155038000000000
C      -4.221207000000000      0.435138000000000     -1.239669000000000
C      -4.495000000000000     -0.370995000000000     -0.117458000000000
C      -3.496905000000000     -2.613651000000000      0.452438000000000
C      -2.331160000000000      1.405136000000000     -3.080070000000000
C      -3.841756000000000      1.777045000000000     -1.102070000000000
C      -4.305820000000000      0.129553000000000      1.163982000000000
C      -3.407949000000000     -2.130693000000000      1.767397000000000
C      -3.770454000000000      2.309318000000000      0.180908000000000
C      -3.953106000000000      1.479361000000000      1.304802000000000
C      -2.960751000000000      3.545109000000000      0.566863000000000
C      -3.108618000000000      1.973161000000000      2.393288000000000
C      -0.486954000000000      4.055918000000000      0.091586000000000
C      -1.134088000000000      1.351061000000000      3.726958000000000
C      -0.201212000000000      4.225884000000000      1.567696000000000
C      -0.568268000000000      2.587228000000000      3.307515000000000
C      -1.217749000000000      3.464090000000000      2.409222000000000
C      -2.474183000000000      3.150887000000000      1.950159000000000
C       2.141471000000000      3.195527000000000      1.092416000000000
C       1.705680000000000      1.681258000000000      3.407749000000000
C       3.017628000000000      2.109687000000000      1.418139000000000
C       2.823592000000000      1.399437000000000      2.593281000000000
C       3.869418000000000      1.448073000000000      0.357803000000000
C       3.253582000000000     -0.048998000000000      2.844982000000000
C       3.703057000000000     -0.064116000000000      0.403468000000000
C       3.355498000000000     -0.807153000000000      1.530139000000000
C       3.553919000000000     -0.594714000000000     -0.872331000000000
C       2.881114000000000     -2.126322000000000      1.358892000000000
C       3.091582000000000     -1.895903000000000     -1.067497000000000
C       2.764343000000000     -2.683614000000000      0.056982000000000
C       2.700443000000000     -2.264470000000000     -2.487820000000000
C       2.104953000000000     -4.059112000000000     -0.150221000000000
C       1.582687000000000     -3.280685000000000     -2.505348000000000
C       1.309261000000000     -4.100236000000000     -1.443686000000000
C       0.509742000000000     -2.793567000000000     -3.300013000000000
C      -0.046741000000000     -4.470498000000000     -1.172313000000000
C      -0.791450000000000     -3.212852000000000     -3.069952000000000
C      -1.077955000000000     -4.109456000000000     -2.008129000000000
C      -1.885082000000000     -2.285406000000000     -3.223539000000000
C      -2.493759000000000     -3.888362000000000     -1.510341000000000
C      -3.729586000000000     -0.424859000000000     -2.314154000000000
C      -4.420047000000000     -1.850080000000000     -0.494974000000000
C      -2.917963000000000     -2.686527000000000     -2.344258000000000
C      -3.817614000000000     -1.759383000000000     -1.882103000000000
C       1.101651000000000      3.520758000000000      1.953161000000000
C       0.853512000000000      2.718865000000000      3.088325000000000
Cl      2.979070000000000      5.322246000000000     -0.463061000000000
Cl     -0.150990000000000      6.018831000000000      2.009959000000000
Cl      5.640790000000000      1.929649000000000      0.569791000000000
Cl      4.846550000000000     -0.141611000000000      3.759544000000000
Cl      3.585894000000000     -3.854585000000000      3.404069000000000
Cl      3.400138000000000     -5.365138000000000     -0.094063000000000
Cl     -4.021937000000000      5.050516000000000      0.612480000000000
Cl     -4.240234000000000      3.443423000000000     -3.266975000000000
Cl     -6.094205000000000     -2.616061000000000     -0.495582000000000
Cl     -5.550319000000000     -1.157388000000000      3.260883000000000
Cl      4.160498000000000     -2.875968000000000     -3.426084000000000
Cl      5.083037000000000      0.590676000000000     -2.904712000000000
Cl      2.424027000000000      3.670077000000000     -3.970244000000000
Cl     -3.563511000000000     -5.372953000000000     -1.834692000000000
