98

C       0.142362000000000      2.442827000000000     -3.041156000000000
C      -4.055344000000000      0.592700000000000     -1.654995000000000
C       1.615630000000000     -1.197344000000000      3.920299000000000
C      -2.967026000000000     -1.767543000000000      3.341541000000000
C       0.347121000000000      0.944029000000000     -3.250959000000000
C      -3.249327000000000      1.883702000000000     -1.492919000000000
C       1.625354000000000     -2.530895000000000      3.311830000000000
C      -2.021590000000000     -0.723841000000000      3.941620000000000
C      -0.790042000000000      0.056519000000000     -3.330084000000000
C      -3.101973000000000      2.629248000000000     -0.324664000000000
C      -2.155583000000000      0.685162000000000      3.733096000000000
C       0.431116000000000     -3.223379000000000      3.008959000000000
C      -2.077271000000000      0.548588000000000     -3.002315000000000
C      -0.777626000000000     -2.643404000000000      3.505431000000000
C      -2.236479000000000      1.891262000000000     -2.460941000000000
C      -0.788122000000000     -1.301267000000000      4.126819000000000
C      -1.157066000000000      2.734182000000000     -2.352550000000000
C       0.411511000000000     -0.532695000000000      4.247655000000000
C      -1.017952000000000      3.531275000000000     -1.214185000000000
C       0.323486000000000      0.896739000000000      4.114322000000000
C       0.428558000000000      3.983138000000000     -1.080674000000000
C       1.511889000000000      1.562513000000000      3.694013000000000
C       1.119088000000000      3.033102000000000     -2.043642000000000
C       2.686391000000000      0.869352000000000      3.339497000000000
C       2.297427000000000      2.473468000000000     -1.795307000000000
C       2.745933000000000     -0.497655000000000      3.461204000000000
C       2.762339000000000      1.226318000000000     -2.512001000000000
C       3.592027000000000     -1.365911000000000      2.547741000000000
C       1.623326000000000      0.414215000000000     -3.098075000000000
C       2.763882000000000     -2.632292000000000      2.493850000000000
C       1.802696000000000     -0.981273000000000     -3.159560000000000
C       2.729588000000000     -3.437592000000000      1.383034000000000
C       0.725183000000000     -1.847002000000000     -3.308860000000000
C       1.568507000000000     -4.181636000000000      1.078446000000000
C      -0.618028000000000     -1.370409000000000     -3.276561000000000
C       0.364613000000000     -4.058701000000000      1.839392000000000
C      -1.666085000000000     -2.214339000000000     -2.759125000000000
C      -0.918743000000000     -4.244985000000000      1.170787000000000
C      -2.862938000000000     -1.643567000000000     -2.298387000000000
C      -4.211979000000000     -1.428839000000000     -0.204758000000000
C      -3.900063000000000     -2.010371000000000      1.037887000000000
C      -2.111146000000000     -3.628619000000000      1.715371000000000
C      -3.072261000000000     -0.264421000000000     -2.474183000000000
C      -4.338185000000000     -0.043303000000000     -0.324797000000000
C      -3.746890000000000     -1.228240000000000      2.182640000000000
C      -2.002874000000000     -2.884938000000000      2.932156000000000
C      -4.275201000000000      0.738152000000000      0.831858000000000
C      -3.942268000000000      0.147828000000000      2.066359000000000
C      -3.945490000000000      2.226495000000000      0.871844000000000
C      -3.209148000000000      1.118955000000000      2.887530000000000
C      -1.958373000000000      3.468823000000000     -0.181696000000000
C      -0.972295000000000      1.512807000000000      3.836950000000000
C      -1.544475000000000      4.027323000000000      1.162830000000000
C      -0.993463000000000      2.756723000000000      3.142208000000000
C      -2.053168000000000      3.146315000000000      2.296743000000000
C      -3.146940000000000      2.320780000000000      2.162056000000000
C       0.917250000000000      3.816852000000000      0.340874000000000
C       1.441836000000000      2.749180000000000      2.875759000000000
C       2.180886000000000      3.197961000000000      0.614174000000000
C       2.449455000000000      2.719557000000000      1.887676000000000
C       3.054976000000000      2.676361000000000     -0.505306000000000
C       3.432841000000000      1.597254000000000      2.233643000000000
C       3.488319000000000      1.244723000000000     -0.223745000000000
C       3.624372000000000      0.674181000000000      1.040458000000000
C       3.364632000000000      0.446827000000000     -1.355536000000000
C       3.675951000000000     -0.732098000000000      1.152543000000000
C       3.413553000000000     -0.945003000000000     -1.272315000000000
C       3.593132000000000     -1.546290000000000     -0.008234000000000
C       2.984853000000000     -1.715228000000000     -2.511178000000000
C       3.497131000000000     -3.074859000000000      0.120503000000000
C       2.357818000000000     -3.041004000000000     -2.151128000000000
C       2.596179000000000     -3.660964000000000     -0.954836000000000
C       1.076613000000000     -3.154502000000000     -2.771145000000000
C       1.539651000000000     -4.400414000000000     -0.345296000000000
C       0.097068000000000     -3.968432000000000     -2.257136000000000
C       0.319743000000000     -4.560518000000000     -0.987513000000000
C      -1.377976000000000     -3.689449000000000     -2.455182000000000
C      -0.912246000000000     -4.519103000000000     -0.230360000000000
C      -3.792792000000000     -2.365638000000000     -1.330636000000000
C      -3.146722000000000     -3.250511000000000      0.822074000000000
C      -1.937313000000000     -4.063699000000000     -1.089714000000000
C      -3.041934000000000     -3.438488000000000     -0.564501000000000
C      -0.028416000000000      3.922119000000000      1.351932000000000
C       0.221078000000000      3.333439000000000      2.610177000000000
Cl      0.629062000000000      5.739052000000000     -1.626433000000000
Cl     -2.122131000000000      5.772987000000000      1.336395000000000
Cl      4.518162000000000      3.780002000000000     -0.740764000000000
Cl      5.055564000000000      2.257461000000000      2.794827000000000
Cl      5.278197000000000     -1.645644000000000      3.218867000000000
Cl      5.187016000000000     -3.799544000000000      0.070907000000000
Cl      4.411117000000000     -1.948769000000000     -3.651100000000000
Cl      3.998977000000000      1.644257000000000     -3.812588000000000
Cl     -5.471959000000000      3.262765000000000      0.939424000000000
Cl     -5.611577000000000      0.907570000000000     -2.589807000000000
Cl      0.239612000000000      3.299908000000000     -4.685578000000000
Cl     -5.246199000000000     -3.047896000000000     -2.237011000000000
Cl     -2.070912000000000     -4.737706000000000     -3.818051000000000
Cl     -4.144066000000000     -2.389267000000000      4.643397000000000
