98

C       0.853644000000000      2.365413000000000     -3.009550000000000
C      -3.539246000000000      0.838091000000000     -2.515790000000000
C       1.229515000000000     -1.328759000000000      3.781276000000000
C      -3.289922000000000     -1.659226000000000      2.534880000000000
C       1.074619000000000      1.054878000000000     -3.470513000000000
C      -2.719628000000000      2.091716000000000     -2.224414000000000
C       1.269635000000000     -2.614683000000000      3.160191000000000
C      -2.376945000000000     -0.658326000000000      3.240172000000000
C      -0.082581000000000      0.210649000000000     -3.761848000000000
C      -2.710396000000000      2.808861000000000     -1.042839000000000
C      -2.418585000000000      0.700509000000000      3.081803000000000
C       0.090009000000000     -3.241525000000000      2.673854000000000
C      -1.375001000000000      0.750522000000000     -3.585113000000000
C      -1.133869000000000     -2.609999000000000      3.004993000000000
C      -1.561705000000000      2.051575000000000     -3.041234000000000
C      -1.174864000000000     -1.334529000000000      3.625269000000000
C      -0.454338000000000      2.836274000000000     -2.735705000000000
C       0.006250000000000     -0.622029000000000      3.944165000000000
C      -0.476052000000000      3.660195000000000     -1.577139000000000
C      -0.008991000000000      0.814192000000000      3.823868000000000
C       0.965115000000000      4.001860000000000     -1.202978000000000
C       1.245592000000000      1.437868000000000      3.600294000000000
C       1.747478000000000      3.014200000000000     -2.058373000000000
C       2.456742000000000      0.702152000000000      3.408081000000000
C       2.894811000000000      2.445949000000000     -1.674366000000000
C       2.456434000000000     -0.651064000000000      3.505211000000000
C       3.399723000000000      1.194804000000000     -2.348542000000000
C       3.389699000000000     -1.535274000000000      2.699435000000000
C       2.340469000000000      0.438700000000000     -3.134880000000000
C       2.523385000000000     -2.759572000000000      2.492402000000000
C       2.447757000000000     -0.921583000000000     -3.191133000000000
C       2.595641000000000     -3.522090000000000      1.374370000000000
C       1.329344000000000     -1.757010000000000     -3.524117000000000
C       1.435269000000000     -4.209798000000000      0.886844000000000
C       0.029594000000000     -1.224170000000000     -3.724400000000000
C       0.148189000000000     -4.046155000000000      1.479230000000000
C      -1.125600000000000     -2.042202000000000     -3.371927000000000
C      -1.036038000000000     -4.160913000000000      0.638469000000000
C      -2.394239000000000     -1.406087000000000     -3.063536000000000
C      -3.958254000000000     -1.197639000000000     -1.131133000000000
C      -3.904988000000000     -1.820057000000000      0.121350000000000
C      -2.274363000000000     -3.490895000000000      1.031283000000000
C      -2.501858000000000     -0.051932000000000     -3.218928000000000
C      -4.002267000000000      0.191120000000000     -1.242195000000000
C      -3.880183000000000     -1.063471000000000      1.290933000000000
C      -2.305529000000000     -2.779940000000000      2.200008000000000
C      -4.061914000000000      0.944129000000000     -0.069811000000000
C      -3.991717000000000      0.320495000000000      1.182046000000000
C      -3.723106000000000      2.422309000000000      0.025638000000000
C      -3.552437000000000      1.293416000000000      2.255615000000000
C      -1.551540000000000      3.608673000000000     -0.714507000000000
C      -1.224607000000000      1.484724000000000      3.370215000000000
C      -1.316416000000000      4.069937000000000      0.705273000000000
C      -1.103025000000000      2.730955000000000      2.734108000000000
C      -2.030837000000000      3.166294000000000      1.701728000000000
C      -3.140728000000000      2.478413000000000      1.414597000000000
C       1.224218000000000      3.776105000000000      0.268389000000000
C       1.335916000000000      2.627196000000000      2.819632000000000
C       2.424183000000000      3.108032000000000      0.707340000000000
C       2.482905000000000      2.590740000000000      1.988075000000000
C       3.452468000000000      2.594884000000000     -0.283713000000000
C       3.377743000000000      1.434949000000000      2.447221000000000
C       3.803045000000000      1.140701000000000      0.017037000000000
C       3.729343000000000      0.535313000000000      1.271373000000000
C       3.816678000000000      0.371361000000000     -1.141806000000000
C       3.709645000000000     -0.873846000000000      1.350511000000000
C       3.789919000000000     -1.020645000000000     -1.090427000000000
C       3.756000000000000     -1.657606000000000      0.167585000000000
C       3.478233000000000     -1.739221000000000     -2.395209000000000
C       3.542901000000000     -3.178619000000000      0.235830000000000
C       2.730631000000000     -3.027440000000000     -2.156150000000000
C       2.761267000000000     -3.682892000000000     -0.965051000000000
C       1.532930000000000     -3.042137000000000     -2.956759000000000
C       1.587231000000000     -4.394574000000000     -0.515203000000000
C       0.421616000000000     -3.801953000000000     -2.586235000000000
C       0.448711000000000     -4.494516000000000     -1.310236000000000
C      -0.887455000000000     -3.321559000000000     -2.825220000000000
C      -0.847828000000000     -4.432679000000000     -0.730712000000000
C      -3.456419000000000     -2.117374000000000     -2.226855000000000
C      -3.387888000000000     -3.241951000000000      0.016522000000000
C      -1.732128000000000     -3.820629000000000     -1.730329000000000
C      -2.900230000000000     -3.249838000000000     -1.407153000000000
C       0.142440000000000      3.889754000000000      1.120938000000000
C       0.173696000000000      3.258924000000000      2.391773000000000
Cl      1.375694000000000      5.739433000000000     -1.678055000000000
Cl     -1.851389000000000      5.825331000000000      0.917908000000000
Cl      4.963622000000000      3.663563000000000     -0.238454000000000
Cl      4.906428000000000      2.041564000000000      3.271535000000000
Cl      4.943018000000000     -1.912381000000000      3.605439000000000
Cl      5.174773000000000     -4.019261000000000      0.392915000000000
Cl     -5.248497000000000      3.460072000000000     -0.148143000000000
Cl     -4.955625000000000      1.217839000000000     -3.630001000000000
Cl     -4.762343000000000     -4.471950000000000      0.285413000000000
Cl     -4.601636000000000     -2.267244000000000      3.677631000000000
Cl      5.020498000000000     -2.040937000000000     -3.356127000000000
Cl      4.840370000000000      1.602751000000000     -3.450291000000000
Cl     -4.971528000000000      1.734384000000000      3.381506000000000
Cl     -4.846414000000000     -2.685080000000000     -3.325559000000000
