100

C       1.111145000000000      2.350154000000000     -3.177353000000000
C      -3.310328000000000      0.545244000000000     -2.785899000000000
C       0.958648000000000     -1.410281000000000      3.886674000000000
C      -3.410799000000000     -1.899181000000000      2.292375000000000
C       1.341818000000000      0.855740000000000     -3.364614000000000
C      -2.552235000000000      1.823647000000000     -2.445701000000000
C       1.089746000000000     -2.715964000000000      3.283850000000000
C      -2.582579000000000     -0.871782000000000      3.060150000000000
C       0.244157000000000     -0.008683000000000     -3.720042000000000
C      -2.664704000000000      2.557861000000000     -1.267288000000000
C      -2.635446000000000      0.517563000000000      2.881742000000000
C      -0.025644000000000     -3.389791000000000      2.710659000000000
C      -1.084500000000000      0.496789000000000     -3.682038000000000
C      -1.287472000000000     -2.795396000000000      2.926967000000000
C      -1.345897000000000      1.823159000000000     -3.164920000000000
C      -1.420436000000000     -1.490068000000000      3.535975000000000
C      -0.307254000000000      2.652360000000000     -2.800544000000000
C      -0.293213000000000     -0.737263000000000      3.934167000000000
C      -0.424923000000000      3.431552000000000     -1.648836000000000
C      -0.347732000000000      0.693970000000000      3.800561000000000
C       0.955940000000000      3.849933000000000     -1.174272000000000
C       0.913615000000000      1.358751000000000      3.697603000000000
C       1.841497000000000      2.911344000000000     -1.974954000000000
C       2.131357000000000      0.663265000000000      3.601911000000000
C       2.930503000000000      2.339005000000000     -1.473843000000000
C       2.166839000000000     -0.708779000000000      3.709574000000000
C       3.537348000000000      1.097432000000000     -2.082043000000000
C       3.192289000000000     -1.570005000000000      2.996195000000000
C       2.552169000000000      0.303786000000000     -2.921627000000000
C       2.388721000000000     -2.828999000000000      2.736890000000000
C       2.723698000000000     -1.081005000000000     -2.947906000000000
C       2.578250000000000     -3.605840000000000      1.631487000000000
C       1.678278000000000     -1.935492000000000     -3.348166000000000
C       1.493254000000000     -4.340362000000000      1.062437000000000
C       0.384076000000000     -1.436904000000000     -3.650092000000000
C       0.155527000000000     -4.205785000000000      1.538574000000000
C      -0.771480000000000     -2.285978000000000     -3.389661000000000
C      -0.950775000000000     -4.360020000000000      0.603594000000000
C      -2.067464000000000     -1.688774000000000     -3.202526000000000
C      -3.786615000000000     -1.485672000000000     -1.416474000000000
C      -3.820472000000000     -2.094039000000000     -0.157537000000000
C      -2.230701000000000     -3.725012000000000      0.882820000000000
C      -2.190841000000000     -0.318351000000000     -3.391406000000000
C      -3.851340000000000     -0.100621000000000     -1.544499000000000
C      -3.899947000000000     -1.326205000000000      0.999724000000000
C      -2.376471000000000     -3.003981000000000      2.050777000000000
C      -4.020649000000000      0.663746000000000     -0.387540000000000
C      -4.031083000000000      0.057956000000000      0.871278000000000
C      -3.743051000000000      2.149272000000000     -0.281837000000000
C      -3.728955000000000      1.056975000000000      1.969078000000000
C      -1.578569000000000      3.378079000000000     -0.859858000000000
C      -1.533904000000000      1.309116000000000      3.258142000000000
C      -1.474574000000000      3.880816000000000      0.559524000000000
C      -1.484198000000000      2.765800000000000      2.807507000000000
C      -2.257395000000000      3.012861000000000      1.529770000000000
C      -3.274927000000000      2.246241000000000      1.153028000000000
C       1.099472000000000      3.632175000000000      0.312133000000000
C       1.024116000000000      2.551546000000000      2.883325000000000
C       2.257855000000000      3.018112000000000      0.851814000000000
C       2.222174000000000      2.519798000000000      2.151077000000000
C       3.371445000000000      2.517332000000000     -0.041076000000000
C       3.107625000000000      1.399653000000000      2.698561000000000
C       3.726128000000000      1.080580000000000      0.312785000000000
C       3.565524000000000      0.491957000000000      1.567082000000000
C       3.861708000000000      0.298877000000000     -0.828824000000000
C       3.589439000000000     -0.916834000000000      1.666018000000000
C       3.883606000000000     -1.093780000000000     -0.755729000000000
C       3.767684000000000     -1.713464000000000      0.505271000000000
C       3.719669000000000     -1.842635000000000     -2.068800000000000
C       3.611435000000000     -3.242893000000000      0.579858000000000
C       3.008817000000000     -3.158539000000000     -1.871282000000000
C       2.962801000000000     -3.794456000000000     -0.674243000000000
C       1.877082000000000     -3.234696000000000     -2.768317000000000
C       1.769553000000000     -4.545666000000000     -0.321067000000000
C       0.775047000000000     -4.016718000000000     -2.483386000000000
C       0.715439000000000     -4.693398000000000     -1.208627000000000
C      -0.544740000000000     -3.568645000000000     -2.822256000000000
C      -0.641712000000000     -4.642225000000000     -0.746569000000000
C      -3.172188000000000     -2.408115000000000     -2.451566000000000
C      -3.259321000000000     -3.503762000000000     -0.215121000000000
C      -1.458492000000000     -4.075649000000000     -1.815167000000000
C      -2.671550000000000     -3.519203000000000     -1.588033000000000
C      -0.061355000000000      3.710908000000000      1.089993000000000
C      -0.101743000000000      3.159004000000000      2.369810000000000
Cl      1.300839000000000      5.615878000000000     -1.599582000000000
Cl     -2.011789000000000      5.647965000000000      0.663059000000000
Cl      4.843232000000000      3.622202000000000      0.094834000000000
Cl      4.557657000000000      2.054191000000000      3.617780000000000
Cl      4.678912000000000     -1.871975000000000      4.028336000000000
Cl      5.257373000000000     -4.006754000000000      0.911488000000000
Cl     -5.276075000000000      3.139344000000000     -0.569371000000000
Cl     -4.647370000000000      0.879093000000000     -4.003769000000000
Cl     -4.651019000000000     -4.757195000000000      0.010911000000000
Cl     -4.802090000000000     -2.521394000000000      3.326231000000000
Cl      5.359607000000000     -2.088819000000000     -2.880838000000000
Cl      5.039833000000000      1.517775000000000     -3.061661000000000
Cl      1.597192000000000      3.237098000000000     -4.743692000000000
Cl     -5.232056000000000      1.442967000000000      2.970642000000000
Cl     -2.090048000000000      3.850060000000000      4.195163000000000
Cl     -4.491664000000000     -2.977417000000000     -3.679257000000000
