100

C       1.474456000000000      2.665714000000000     -2.830985000000000
C      -3.199141000000000      1.722632000000000     -2.379020000000000
C       0.838648000000000     -1.791029000000000      3.805627000000000
C      -3.604476000000000     -1.220066000000000      2.422765000000000
C       1.392852000000000      1.187036000000000     -3.197291000000000
C      -2.192021000000000      2.786055000000000     -1.948876000000000
C       0.679747000000000     -3.004628000000000      3.051066000000000
C      -2.569331000000000     -0.457055000000000      3.255454000000000
C       0.130184000000000      0.604739000000000     -3.582277000000000
C      -2.114715000000000      3.384306000000000     -0.694515000000000
C      -2.368232000000000      0.903612000000000      3.224170000000000
C      -0.567474000000000     -3.357214000000000      2.468615000000000
C      -1.067254000000000      1.356214000000000     -3.415739000000000
C      -1.672920000000000     -2.557795000000000      2.833306000000000
C      -1.035562000000000      2.629738000000000     -2.731805000000000
C      -1.521961000000000     -1.352967000000000      3.600944000000000
C       0.160590000000000      3.193576000000000     -2.342383000000000
C      -0.250098000000000     -0.895436000000000      4.010592000000000
C       0.245005000000000      3.839781000000000     -1.109298000000000
C      -0.010978000000000      0.525346000000000      4.027011000000000
C       1.699050000000000      3.922616000000000     -0.672682000000000
C       1.342085000000000      0.932696000000000      3.888857000000000
C       2.345690000000000      2.925985000000000     -1.618220000000000
C       2.408951000000000      0.014892000000000      3.655423000000000
C       3.313377000000000      2.095460000000000     -1.247323000000000
C       2.168039000000000     -1.324797000000000      3.624298000000000
C       3.635894000000000      0.841097000000000     -2.024408000000000
C       2.959371000000000     -2.286989000000000      2.753135000000000
C       2.486417000000000      0.364673000000000     -2.893626000000000
C       1.902112000000000     -3.315924000000000      2.414838000000000
C       2.374584000000000     -1.013757000000000     -3.080427000000000
C       1.881973000000000     -3.993611000000000      1.222646000000000
C       1.162442000000000     -1.589146000000000     -3.489762000000000
C       0.662645000000000     -4.418922000000000      0.650232000000000
C      -0.016717000000000     -0.822087000000000     -3.664128000000000
C      -0.605580000000000     -4.048778000000000      1.206540000000000
C      -1.304626000000000     -1.459412000000000     -3.421286000000000
C      -1.749109000000000     -3.881984000000000      0.347744000000000
C      -2.436076000000000     -0.645407000000000     -3.108018000000000
C      -4.002541000000000     -0.327596000000000     -1.202583000000000
C      -4.107349000000000     -1.058822000000000     -0.015697000000000
C      -2.836288000000000     -3.065707000000000      0.755473000000000
C      -2.296769000000000      0.738604000000000     -3.144000000000000
C      -3.807556000000000      1.051236000000000     -1.183166000000000
C      -4.010862000000000     -0.424040000000000      1.221818000000000
C      -2.810291000000000     -2.457878000000000      2.009721000000000
C      -3.793171000000000      1.695959000000000      0.054984000000000
C      -3.887025000000000      0.963311000000000      1.241915000000000
C      -3.226976000000000      3.083660000000000      0.300756000000000
C      -3.346277000000000      1.750077000000000      2.418055000000000
C      -0.867079000000000      3.919688000000000     -0.264266000000000
C      -1.074464000000000      1.435750000000000      3.610208000000000
C      -0.610944000000000      4.221100000000000      1.189219000000000
C      -0.711989000000000      2.697506000000000      3.093635000000000
C      -1.510447000000000      3.380650000000000      2.087690000000000
C      -2.706306000000000      2.920217000000000      1.707800000000000
C       1.851848000000000      3.518776000000000      0.777322000000000
C       1.665925000000000      2.151408000000000      3.218791000000000
C       2.892252000000000      2.614631000000000      1.181836000000000
C       2.814832000000000      1.984812000000000      2.412150000000000
C       3.838019000000000      2.011967000000000      0.166631000000000
C       3.474084000000000      0.651098000000000      2.777675000000000
C       3.909795000000000      0.501278000000000      0.338055000000000
C       3.691458000000000     -0.189809000000000      1.528619000000000
C       3.832341000000000     -0.150057000000000     -0.887098000000000
C       3.423859000000000     -1.574784000000000      1.476871000000000
C       3.566462000000000     -1.517196000000000     -0.964626000000000
C       3.374469000000000     -2.249021000000000      0.227099000000000
C       3.219715000000000     -2.059150000000000     -2.339466000000000
C       2.921730000000000     -3.718574000000000      0.149469000000000
C       2.257483000000000     -3.221240000000000     -2.245397000000000
C       2.115437000000000     -3.978913000000000     -1.109540000000000
C       1.117012000000000     -2.955792000000000     -3.036902000000000
C       0.830196000000000     -4.520054000000000     -0.783414000000000
C      -0.124419000000000     -3.546504000000000     -2.764075000000000
C      -0.252621000000000     -4.387336000000000     -1.622549000000000
C      -1.325979000000000     -2.830250000000000     -3.013206000000000
C      -1.669660000000000     -4.324687000000000     -1.106698000000000
C      -3.629194000000000     -1.221797000000000     -2.364627000000000
C      -3.859669000000000     -2.537689000000000     -0.247573000000000
C      -2.285245000000000     -3.271567000000000     -2.027659000000000
C      -3.322568000000000     -2.510757000000000     -1.650927000000000
C       0.773649000000000      3.746846000000000      1.614598000000000
C       0.647648000000000      3.014230000000000      2.824694000000000
Cl      2.380551000000000      5.620924000000000     -0.935246000000000
Cl     -0.832142000000000      6.022779000000000      1.545914000000000
Cl      5.511321000000000      2.780043000000000      0.318340000000000
Cl      5.061708000000000      0.894281000000000      3.671508000000000
Cl      4.396945000000000     -3.006361000000000      3.641321000000000
Cl      4.393029000000000     -4.816178000000000      0.262336000000000
Cl     -4.547462000000000      4.370292000000000      0.178695000000000
Cl     -4.496142000000000      2.440069000000000     -3.469046000000000
Cl     -5.433400000000000     -3.499377000000000     -0.088918000000000
Cl     -5.062325000000000     -1.676823000000000      3.455320000000000
Cl      4.741678000000000     -2.538501000000000     -3.252846000000000
Cl      5.161281000000000      1.068312000000000     -3.032758000000000
Cl      2.075829000000000      3.612276000000000     -4.318182000000000
Cl     -2.538109000000000     -5.961514000000000     -1.300276000000000
Cl     -4.722279000000000      2.321450000000000      3.534624000000000
Cl     -5.074141000000000     -1.424407000000000     -3.536483000000000
