102

C       0.998160000000000     -0.800804000000000      3.933710000000000
C      -3.182814000000000      1.249499000000000      2.830604000000000
C       0.714845000000000     -0.688587000000000     -4.078339000000000
C      -3.428606000000000      1.101028000000000     -2.816943000000000
C       1.417864000000000      0.566201000000000      3.391803000000000
C      -2.618780000000000     -0.141669000000000      3.106325000000000
C       1.043477000000000      0.676808000000000     -4.142858000000000
C      -2.790256000000000     -0.270525000000000     -3.023231000000000
C       0.465627000000000      1.652577000000000      3.334660000000000
C      -2.914577000000000     -1.305025000000000      2.395851000000000
C      -2.986230000000000     -1.384597000000000     -2.230495000000000
C       0.063930000000000      1.710775000000000     -3.943612000000000
C      -0.909438000000000      1.380915000000000      3.563464000000000
C      -1.267003000000000      1.281459000000000     -3.846628000000000
C      -1.369174000000000      0.008379000000000      3.721004000000000
C      -1.593725000000000     -0.113286000000000     -3.751678000000000
C      -0.473574000000000     -1.034099000000000      3.761363000000000
C      -0.606201000000000     -1.119496000000000     -3.767160000000000
C      -0.774860000000000     -2.225098000000000      3.098503000000000
C      -0.829541000000000     -2.305029000000000     -2.993780000000000
C       0.502056000000000     -3.004211000000000      2.842296000000000
C       0.356372000000000     -3.251351000000000     -2.795998000000000
C       1.555622000000000     -1.945070000000000      3.113031000000000
C       1.702074000000000     -2.562405000000000     -2.897616000000000
C       2.657270000000000     -1.820559000000000      2.382764000000000
C       1.859205000000000     -1.419503000000000     -3.571635000000000
C       3.453892000000000     -0.538842000000000      2.341330000000000
C       3.030908000000000     -0.475396000000000     -3.365700000000000
C       2.626051000000000      0.675330000000000      2.718217000000000
C       2.402073000000000      0.855096000000000     -3.708642000000000
C       2.952063000000000      1.893670000000000      2.083757000000000
C       2.761345000000000      2.005362000000000     -3.101915000000000
C       2.087585000000000      2.972335000000000      2.092791000000000
C       1.815368000000000      3.081018000000000     -2.929559000000000
C       0.772300000000000      2.856790000000000      2.618437000000000
C       0.438916000000000      2.940594000000000     -3.292533000000000
C      -0.293813000000000      3.653120000000000      2.037268000000000
C      -0.559701000000000      3.670198000000000     -2.531331000000000
C      -1.636058000000000      3.236033000000000      2.161563000000000
C      -3.496659000000000      2.475359000000000      0.677626000000000
C      -3.576940000000000      2.445208000000000     -0.719550000000000
C      -1.927540000000000      3.172693000000000     -2.457983000000000
C      -1.925778000000000      2.125316000000000      2.969083000000000
C      -3.722527000000000      1.327772000000000      1.434078000000000
C      -3.860049000000000      1.258841000000000     -1.390711000000000
C      -2.257465000000000      2.031785000000000     -3.143633000000000
C      -4.091590000000000      0.160851000000000      0.763653000000000
C      -4.145270000000000      0.124810000000000     -0.632532000000000
C      -4.009165000000000     -1.234988000000000      1.348394000000000
C      -4.056141000000000     -1.297397000000000     -1.152941000000000
C      -1.971018000000000     -2.364673000000000      2.386938000000000
C      -1.993686000000000     -2.418157000000000     -2.220380000000000
C      -2.043516000000000     -3.464080000000000      1.352229000000000
C      -2.106819000000000     -3.513633000000000     -1.156182000000000
C      -2.791468000000000     -3.028725000000000      0.107000000000000
C      -3.673581000000000     -2.036413000000000      0.108885000000000
C       0.547914000000000     -3.486094000000000      1.410576000000000
C       0.397717000000000     -3.727279000000000     -1.374423000000000
C       1.712410000000000     -3.346730000000000      0.631588000000000
C       1.624314000000000     -3.486081000000000     -0.758003000000000
C       2.956858000000000     -2.690071000000000      1.185807000000000
C       2.621132000000000     -2.920168000000000     -1.755828000000000
C       3.475612000000000     -1.647910000000000      0.210911000000000
C       3.297018000000000     -1.685505000000000     -1.171676000000000
C       3.787976000000000     -0.457619000000000      0.862090000000000
C       3.477095000000000     -0.497205000000000     -1.903972000000000
C       3.967734000000000      0.731318000000000      0.153763000000000
C       3.826998000000000      0.708310000000000     -1.246702000000000
C       3.985801000000000      2.018640000000000      0.964883000000000
C       3.815399000000000      2.034636000000000     -2.010007000000000
C       3.434891000000000      3.192147000000000      0.200313000000000
C       3.318119000000000      3.175887000000000     -1.136565000000000
C       2.520627000000000      4.011302000000000      1.086636000000000
C       2.215933000000000      3.851518000000000     -1.817819000000000
C       1.331947000000000      4.542207000000000      0.371317000000000
C       1.253203000000000      4.537063000000000     -1.086976000000000
C       0.066653000000000      4.473671000000000      0.891153000000000
C      -0.103906000000000      4.489278000000000     -1.473278000000000
C      -2.713037000000000      3.676057000000000      1.166675000000000
C      -2.873606000000000      3.632581000000000     -1.347145000000000
C      -0.877163000000000      4.575243000000000     -0.231932000000000
C      -2.147032000000000      4.173995000000000     -0.140193000000000
C      -0.671333000000000     -3.747902000000000      0.772601000000000
C      -0.744574000000000     -3.850698000000000     -0.615053000000000
Cl      0.665501000000000     -4.430713000000000      4.001599000000000
Cl     -2.790899000000000     -4.987082000000000      2.085908000000000
Cl      4.234112000000000     -3.963134000000000      1.568761000000000
Cl      3.893902000000000     -4.172419000000000     -2.225487000000000
Cl      4.437380000000000     -0.892049000000000     -4.471015000000000
Cl      5.497271000000000      2.388710000000000     -2.669455000000000
Cl     -5.623721000000000     -1.746944000000000      2.079040000000000
Cl     -4.472438000000000      1.701334000000000      4.062175000000000
Cl     -4.094077000000000      4.856788000000000     -2.019821000000000
Cl     -4.830320000000000      1.376014000000000     -3.976926000000000
Cl      5.687607000000000      2.349665000000000      1.595516000000000
Cl      4.946794000000000     -0.668201000000000      3.411929000000000
Cl      1.495654000000000     -0.917046000000000      5.714507000000000
Cl     -5.678746000000000     -1.875795000000000     -1.814443000000000
Cl     -2.970698000000000     -4.978971000000000     -1.866692000000000
Cl      0.232184000000000     -4.657847000000000     -4.003039000000000
Cl     -3.821018000000000      4.932770000000000      1.952876000000000
Cl      3.439226000000000      5.411933000000000      1.920988000000000
