102

C       0.055814000000000      0.923346000000000      4.091502000000000
C      -3.833033000000000      1.946694000000000      1.494244000000000
C       1.646721000000000     -2.073707000000000     -3.473915000000000
C      -2.777827000000000     -0.269147000000000     -3.587649000000000
C       0.547871000000000      2.040771000000000      3.172460000000000
C      -3.303210000000000      0.821718000000000      2.381311000000000
C       1.870193000000000     -0.602283000000000     -3.770877000000000
C      -2.080523000000000     -1.549285000000000     -3.139590000000000
C      -0.398793000000000      2.904503000000000      2.505550000000000
C      -3.398191000000000     -0.545622000000000      2.123546000000000
C      -2.429069000000000     -2.316565000000000     -2.036543000000000
C       0.853239000000000      0.304321000000000     -4.140213000000000
C      -1.777844000000000      2.580114000000000      2.541566000000000
C      -0.478190000000000     -0.209101000000000     -4.172827000000000
C      -2.227247000000000      1.323059000000000      3.125412000000000
C      -0.765697000000000     -1.540207000000000     -3.616518000000000
C      -1.331406000000000      0.477427000000000      3.733517000000000
C       0.214684000000000     -2.360871000000000     -3.071428000000000
C      -1.440022000000000     -0.899283000000000      3.526416000000000
C      -0.127162000000000     -3.176940000000000     -1.972852000000000
C      -0.113507000000000     -1.567066000000000      3.838567000000000
C       1.009990000000000     -3.851691000000000     -1.206217000000000
C       0.819317000000000     -0.369172000000000      3.890799000000000
C       2.306619000000000     -3.070961000000000     -1.302777000000000
C       2.053582000000000     -0.392658000000000      3.401911000000000
C       2.605399000000000     -2.285419000000000     -2.328850000000000
C       2.801305000000000      0.868882000000000      3.039556000000000
C       3.646197000000000     -1.186790000000000     -2.248993000000000
C       1.881356000000000      2.046895000000000      2.777478000000000
C       3.042744000000000     -0.155566000000000     -3.161059000000000
C       2.315078000000000      2.992272000000000      1.827805000000000
C       3.265020000000000      1.191675000000000     -2.987559000000000
C       1.428860000000000      3.880600000000000      1.229519000000000
C       2.296862000000000      2.123055000000000     -3.402567000000000
C       0.024116000000000      3.788925000000000      1.453076000000000
C       1.035336000000000      1.716147000000000     -3.929827000000000
C      -0.893612000000000      4.177131000000000      0.410394000000000
C      -0.128075000000000      2.565172000000000     -3.703833000000000
C      -2.208082000000000      3.686431000000000      0.417617000000000
C      -3.725579000000000      2.270071000000000     -0.970059000000000
C      -3.434118000000000      1.711574000000000     -2.228619000000000
C      -1.452553000000000      1.985172000000000     -3.726413000000000
C      -2.648858000000000      2.930509000000000      1.518437000000000
C      -4.076085000000000      1.456013000000000      0.098242000000000
C      -3.532972000000000      0.339398000000000     -2.447909000000000
C      -1.586285000000000      0.590481000000000     -4.022035000000000
C      -4.236085000000000      0.081864000000000     -0.136891000000000
C      -3.964171000000000     -0.465473000000000     -1.392853000000000
C      -4.235940000000000     -0.985617000000000      0.937871000000000
C      -3.719091000000000     -1.960111000000000     -1.308873000000000
C      -2.442105000000000     -1.421436000000000      2.702038000000000
C      -1.441184000000000     -3.144203000000000     -1.445573000000000
C      -2.247129000000000     -2.822909000000000      2.169260000000000
C      -1.749124000000000     -3.787202000000000     -0.093577000000000
C      -2.715433000000000     -2.959484000000000      0.733477000000000
C      -3.607461000000000     -2.140962000000000      0.187598000000000
C       0.265701000000000     -2.524211000000000      2.732389000000000
C       0.747084000000000     -3.764869000000000      0.268671000000000
C       1.567884000000000     -2.540712000000000      2.199599000000000
C       1.794222000000000     -3.175938000000000      0.973393000000000
C       2.636450000000000     -1.594654000000000      2.697672000000000
C       2.962129000000000     -2.892150000000000      0.048211000000000
C       3.319144000000000     -0.920071000000000      1.521988000000000
C       3.452224000000000     -1.469228000000000      0.247362000000000
C       3.439145000000000      0.449996000000000      1.725255000000000
C       3.754969000000000     -0.619702000000000     -0.830504000000000
C       3.734620000000000      1.314949000000000      0.671415000000000
C       3.917865000000000      0.775594000000000     -0.619515000000000
C       3.553674000000000      2.800733000000000      0.940557000000000
C       4.075597000000000      1.721347000000000     -1.816298000000000
C       3.147742000000000      3.546280000000000     -0.308892000000000
C       3.391296000000000      3.055818000000000     -1.563109000000000
C       1.964016000000000      4.304480000000000     -0.057907000000000
C       2.437414000000000      3.308862000000000     -2.592350000000000
C       1.107973000000000      4.663872000000000     -1.070184000000000
C       1.325654000000000      4.102894000000000     -2.355070000000000
C      -0.371442000000000      4.892842000000000     -0.841216000000000
C       0.047250000000000      3.756293000000000     -2.937318000000000
C      -3.068720000000000      3.641203000000000     -0.839702000000000
C      -2.457558000000000      2.563396000000000     -2.912493000000000
C      -0.966639000000000      4.260396000000000     -2.092472000000000
C      -2.206461000000000      3.670594000000000     -2.085845000000000
C      -0.771015000000000     -3.136834000000000      2.016788000000000
C      -0.530319000000000     -3.739836000000000      0.784441000000000
Cl     -0.164512000000000     -2.451144000000000      5.457381000000000
Cl     -3.082994000000000     -4.049721000000000      3.269914000000000
Cl      3.843001000000000     -2.496568000000000      3.760359000000000
Cl      4.342935000000000     -4.085252000000000      0.306915000000000
Cl      5.294279000000000     -1.769576000000000     -2.825382000000000
Cl      5.859560000000000      1.933288000000000     -2.207729000000000
Cl      5.084463000000000      3.516716000000000      1.667478000000000
Cl      4.044216000000000      1.286708000000000      4.332913000000000
Cl     -5.952783000000000     -1.384295000000000      1.493051000000000
Cl     -5.353922000000000      2.695093000000000      2.210394000000000
Cl      0.139623000000000      1.506616000000000      5.850724000000000
Cl     -4.316261000000000      4.991020000000000     -0.816651000000000
Cl     -0.751763000000000      6.700850000000000     -0.712018000000000
Cl     -5.129649000000000     -2.917724000000000     -2.011524000000000
Cl     -2.372177000000000     -5.505780000000000     -0.338864000000000
Cl      1.221363000000000     -5.588643000000000     -1.783252000000000
Cl     -3.909730000000000     -0.580048000000000     -5.018181000000000
Cl      2.099221000000000     -3.118894000000000     -4.943929000000000
