102

C       1.363547000000000      2.652644000000000     -3.060776000000000
C      -3.283337000000000      2.024741000000000     -2.107423000000000
C       1.193170000000000     -1.745444000000000      3.994860000000000
C      -3.352853000000000     -0.798233000000000      2.788965000000000
C       1.148707000000000      1.173474000000000     -3.372947000000000
C      -2.173819000000000      3.032510000000000     -1.810184000000000
C       0.839145000000000     -2.858644000000000      3.032473000000000
C      -2.197170000000000     -0.084069000000000      3.486045000000000
C      -0.183698000000000      0.663246000000000     -3.601811000000000
C      -1.929545000000000      3.648434000000000     -0.582971000000000
C      -1.927867000000000      1.257820000000000      3.400381000000000
C      -0.480090000000000     -3.132681000000000      2.586616000000000
C      -1.301440000000000      1.491604000000000     -3.330347000000000
C      -1.497491000000000     -2.269503000000000      3.049254000000000
C      -1.118938000000000      2.793488000000000     -2.701397000000000
C      -1.167756000000000     -1.034312000000000      3.760691000000000
C       0.143335000000000      3.277670000000000     -2.452408000000000
C       0.129231000000000     -0.662935000000000      4.041086000000000
C       0.398336000000000      3.940502000000000     -1.250383000000000
C       0.462938000000000      0.731049000000000      3.972638000000000
C       1.892291000000000      3.927410000000000     -0.964513000000000
C       1.814375000000000      1.048302000000000      3.687195000000000
C       2.368569000000000      2.872528000000000     -1.947435000000000
C       2.783064000000000      0.026681000000000      3.335188000000000
C       3.311203000000000      1.982106000000000     -1.660778000000000
C       2.501961000000000     -1.277310000000000      3.411616000000000
C       3.467146000000000      0.697185000000000     -2.441481000000000
C       3.106492000000000     -2.287463000000000      2.463576000000000
C       2.201399000000000      0.286883000000000     -3.169330000000000
C       1.934027000000000     -3.208132000000000      2.259966000000000
C       1.978217000000000     -1.094363000000000     -3.319779000000000
C       1.758236000000000     -3.929882000000000      1.086821000000000
C       0.712032000000000     -1.595774000000000     -3.598259000000000
C       0.477847000000000     -4.284178000000000      0.664783000000000
C      -0.433076000000000     -0.752169000000000     -3.638222000000000
C      -0.693916000000000     -3.827803000000000      1.345173000000000
C      -1.720079000000000     -1.279693000000000     -3.257191000000000
C      -1.907826000000000     -3.602902000000000      0.602810000000000
C      -2.737877000000000     -0.414297000000000     -2.848854000000000
C      -4.063306000000000      0.042511000000000     -0.803136000000000
C      -4.089051000000000     -0.655854000000000      0.406558000000000
C      -2.881134000000000     -2.725045000000000      1.095336000000000
C      -2.528973000000000      0.974415000000000     -2.936895000000000
C      -3.788333000000000      1.408912000000000     -0.837839000000000
C      -3.827668000000000     -0.005124000000000      1.610376000000000
C      -2.678669000000000     -2.093664000000000      2.340871000000000
C      -3.613383000000000      2.076297000000000      0.374476000000000
C      -3.625034000000000      1.372637000000000      1.582488000000000
C      -2.949865000000000      3.435023000000000      0.528096000000000
C      -2.932481000000000      2.151203000000000      2.681396000000000
C      -0.612762000000000      4.105219000000000     -0.299704000000000
C      -0.572036000000000      1.703519000000000      3.636470000000000
C      -0.186116000000000      4.412512000000000      1.115054000000000
C      -0.184846000000000      2.928269000000000      3.050042000000000
C      -1.041522000000000      3.648693000000000      2.118308000000000
C      -2.298796000000000      3.265886000000000      1.879260000000000
C       2.164437000000000      3.536304000000000      0.471544000000000
C       2.138801000000000      2.206690000000000      2.951860000000000
C       3.179368000000000      2.557488000000000      0.787148000000000
C       3.187869000000000      1.951204000000000      2.024057000000000
C       3.977181000000000      1.884798000000000     -0.309241000000000
C       3.792459000000000      0.586758000000000      2.346350000000000
C       3.976740000000000      0.375768000000000     -0.117313000000000
C       3.844638000000000     -0.280069000000000      1.104096000000000
C       3.721533000000000     -0.286948000000000     -1.311626000000000
C       3.487463000000000     -1.642051000000000      1.120605000000000
C       3.360000000000000     -1.634355000000000     -1.327054000000000
C       3.258729000000000     -2.330281000000000     -0.101452000000000
C       2.835086000000000     -2.176997000000000     -2.645984000000000
C       2.703839000000000     -3.761711000000000     -0.091472000000000
C       1.817068000000000     -3.271704000000000     -2.424297000000000
C       1.757522000000000     -3.995887000000000     -1.258643000000000
C       0.621321000000000     -2.964047000000000     -3.112833000000000
C       0.492953000000000     -4.422582000000000     -0.781378000000000
C      -0.597774000000000     -3.469569000000000     -2.698910000000000
C      -0.663481000000000     -4.204355000000000     -1.507786000000000
C      -1.895039000000000     -2.778402000000000     -3.007561000000000
C      -2.011381000000000     -4.081601000000000     -0.848248000000000
C      -3.894157000000000     -0.894434000000000     -1.980347000000000
C      -3.965535000000000     -2.149600000000000      0.191779000000000
C      -2.677049000000000     -3.042605000000000     -1.732546000000000
C      -3.578157000000000     -2.189532000000000     -1.268285000000000
C       1.202291000000000      3.851708000000000      1.407220000000000
C       1.148631000000000      3.144324000000000      2.641897000000000
Cl      2.657202000000000      5.569122000000000     -1.335532000000000
Cl     -0.253257000000000      6.227455000000000      1.441414000000000
Cl      5.697750000000000      2.554373000000000     -0.350522000000000
Cl      5.463659000000000      0.746081000000000      3.096904000000000
Cl      4.570616000000000     -3.149506000000000      3.178376000000000
Cl      4.090788000000000     -4.965197000000000     -0.092102000000000
Cl      4.219029000000000     -2.768877000000000     -3.699692000000000
Cl      4.881719000000000      0.809849000000000     -3.615932000000000
Cl     -4.203018000000000      4.790860000000000      0.500084000000000
Cl     -4.652320000000000      2.800885000000000     -3.058857000000000
Cl      1.862002000000000      3.532084000000000     -4.617270000000000
Cl     -5.439947000000000     -1.017911000000000     -2.975512000000000
Cl     -2.718102000000000     -3.550124000000000     -4.482437000000000
Cl     -5.568649000000000     -3.003219000000000      0.512228000000000
Cl     -2.926456000000000     -5.694970000000000     -0.890593000000000
Cl     -4.734400000000000     -1.139514000000000      3.958663000000000
Cl     -4.157920000000000      2.819634000000000      3.906436000000000
Cl      1.426645000000000     -2.426512000000000      5.730328000000000
