104

C       0.165210000000000     -2.356823000000000     -3.748436000000000
C       3.607069000000000      0.829086000000000     -2.719803000000000
C      -1.508126000000000      0.267227000000000      3.952696000000000
C       2.523440000000000      2.452400000000000      2.589753000000000
C      -0.576933000000000     -1.032191000000000     -3.813775000000000
C       3.338082000000000     -0.666320000000000     -2.589220000000000
C      -1.991961000000000      1.478415000000000      3.180309000000000
C       2.088969000000000      1.098970000000000      3.149197000000000
C       0.146909000000000      0.206422000000000     -3.958241000000000
C       3.641434000000000     -1.461678000000000     -1.483387000000000
C       2.650777000000000     -0.132521000000000      2.832816000000000
C      -1.166141000000000      2.561524000000000      2.780025000000000
C       1.561192000000000      0.206387000000000     -3.814579000000000
C       0.202120000000000      2.456833000000000      3.092454000000000
C       2.262501000000000     -1.000990000000000     -3.425248000000000
C       0.758630000000000      1.184106000000000      3.567985000000000
C       1.570834000000000     -2.180607000000000     -3.252719000000000
C      -0.019408000000000      0.048203000000000      3.772940000000000
C       1.894285000000000     -3.011771000000000     -2.181900000000000
C       0.542886000000000     -1.211311000000000      3.490776000000000
C       0.731000000000000     -3.942648000000000     -1.888615000000000
C      -0.398210000000000     -2.415831000000000      3.437278000000000
C      -0.383371000000000     -3.283982000000000     -2.683610000000000
C      -1.812686000000000     -2.022285000000000      3.055000000000000
C      -1.630556000000000     -3.192231000000000     -2.236370000000000
C      -2.322432000000000     -0.823101000000000      3.301460000000000
C      -2.609210000000000     -2.176352000000000     -2.776032000000000
C      -3.515345000000000     -0.263002000000000      2.550152000000000
C      -1.926537000000000     -0.989179000000000     -3.434428000000000
C      -3.144467000000000      1.190911000000000      2.481862000000000
C      -2.578507000000000      0.239755000000000     -3.330152000000000
C      -3.561694000000000      2.023457000000000      1.447252000000000
C      -1.907874000000000      1.461291000000000     -3.529887000000000
C      -2.839101000000000      3.155052000000000      1.104921000000000
C      -0.501094000000000      1.470967000000000     -3.754169000000000
C      -1.556911000000000      3.407381000000000      1.681458000000000
C       0.256816000000000      2.608226000000000     -3.265913000000000
C      -0.534687000000000      4.083736000000000      0.924231000000000
C       1.656996000000000      2.499873000000000     -3.025355000000000
C       3.198383000000000      2.683576000000000     -1.092165000000000
C       2.940430000000000      3.097108000000000      0.217756000000000
C       0.821838000000000      3.925878000000000      1.256879000000000
C       2.299365000000000      1.316059000000000     -3.361438000000000
C       3.779155000000000      1.445962000000000     -1.362502000000000
C       3.239473000000000      2.261620000000000      1.290954000000000
C       1.171900000000000      3.138367000000000      2.373727000000000
C       4.159154000000000      0.652257000000000     -0.280946000000000
C       3.880742000000000      1.051410000000000      1.029036000000000
C       4.441932000000000     -0.835041000000000     -0.357030000000000
C       3.913645000000000     -0.126825000000000      1.985003000000000
C       2.898274000000000     -2.650039000000000     -1.273017000000000
C       1.872459000000000     -1.302264000000000      3.006464000000000
C       2.902681000000000     -3.341432000000000      0.073294000000000
C       2.393302000000000     -2.614736000000000      2.421079000000000
C       3.269137000000000     -2.396187000000000      1.201304000000000
C       3.961345000000000     -1.279882000000000      1.007570000000000
C       0.431568000000000     -3.956016000000000     -0.407330000000000
C      -0.033036000000000     -3.289298000000000      2.272748000000000
C      -0.888093000000000     -3.847016000000000      0.068612000000000
C      -1.103407000000000     -3.524856000000000      1.413071000000000
C      -2.057312000000000     -3.693084000000000     -0.876478000000000
C      -2.375273000000000     -2.912396000000000      1.969589000000000
C      -2.938740000000000     -2.544051000000000     -0.424022000000000
C      -3.080339000000000     -2.107443000000000      0.892507000000000
C      -3.270013000000000     -1.713110000000000     -1.487600000000000
C      -3.606490000000000     -0.825043000000000      1.132250000000000
C      -3.784972000000000     -0.435601000000000     -1.271479000000000
C      -3.976960000000000      0.016113000000000      0.048154000000000
C      -3.818461000000000      0.492787000000000     -2.465166000000000
C      -4.366552000000000      1.483393000000000      0.288319000000000
C      -3.630841000000000      1.942391000000000     -2.064195000000000
C      -3.913900000000000      2.405157000000000     -0.821149000000000
C      -2.609702000000000      2.523179000000000     -2.880787000000000
C      -3.265463000000000      3.633052000000000     -0.253764000000000
C      -1.846924000000000      3.550222000000000     -2.300346000000000
C      -2.127251000000000      4.102872000000000     -1.031899000000000
C      -0.452736000000000      3.607898000000000     -2.532887000000000
C      -0.904899000000000      4.701657000000000     -0.418471000000000
C       2.375126000000000      3.463452000000000     -2.087045000000000
C       1.944106000000000      4.244638000000000      0.266193000000000
C       0.153758000000000      4.355296000000000     -1.447057000000000
C       1.448783000000000      4.215409000000000     -1.159987000000000
C       1.494425000000000     -3.731593000000000      0.476582000000000
C       1.259456000000000     -3.385291000000000      1.805504000000000
Cl      1.075607000000000     -5.651826000000000     -2.487360000000000
Cl      4.028168000000000     -4.802356000000000      0.019299000000000
Cl     -2.992255000000000     -5.276618000000000     -0.993203000000000
Cl     -3.503217000000000     -4.200333000000000      2.651395000000000
Cl     -5.083957000000000     -0.562791000000000      3.462395000000000
Cl     -6.189269000000000      1.563948000000000      0.580286000000000
Cl      6.239375000000000     -1.161105000000000     -0.598445000000000
Cl      5.061626000000000      1.154846000000000     -3.792586000000000
Cl      2.774030000000000      5.827868000000000      0.694774000000000
Cl      3.570207000000000      3.380416000000000      3.783107000000000
Cl     -5.380403000000000      0.281311000000000     -3.415878000000000
Cl     -3.793225000000000     -2.968417000000000     -3.941596000000000
Cl      0.166164000000000     -3.168256000000000     -5.425565000000000
Cl      5.409789000000000     -0.077180000000000      3.057289000000000
Cl      3.280869000000000     -3.579323000000000      3.716813000000000
Cl     -0.349985000000000     -3.323436000000000      5.038811000000000
Cl     -1.890032000000000      0.430117000000000      5.761862000000000
Cl     -1.024366000000000      6.563808000000000     -0.207179000000000
Cl      3.401206000000000      4.631946000000000     -3.083192000000000
Cl     -4.557851000000000      5.090576000000000      0.007014000000000
