90

C      -2.334142000000000      0.480141000000000     -3.139837000000000
C      -2.805460000000000     -3.573174000000000     -1.209103000000000
C       2.105840000000000      0.862928000000000      3.209845000000000
C       0.078025000000000     -3.222878000000000      3.276585000000000
C      -1.157100000000000     -0.119545000000000     -3.658989000000000
C      -3.636688000000000     -2.396353000000000     -1.300350000000000
C       3.152243000000000      0.084658000000000      2.620363000000000
C      -0.225048000000000     -1.946587000000000      3.856300000000000
C      -1.011313000000000     -1.578228000000000     -3.585381000000000
C      -4.086370000000000     -1.701353000000000     -0.155218000000000
C      -1.489432000000000     -1.340857000000000      3.697301000000000
C       3.079777000000000     -1.333906000000000      2.556982000000000
C      -2.070244000000000     -2.317278000000000     -3.036952000000000
C       2.020622000000000     -1.930898000000000      3.283118000000000
C      -3.223933000000000     -1.676340000000000     -2.465676000000000
C       0.987543000000000     -1.160489000000000      3.877949000000000
C      -3.342397000000000     -0.302064000000000     -2.497269000000000
C       0.951093000000000      0.251734000000000      3.766984000000000
C      -3.882457000000000      0.414562000000000     -1.381861000000000
C      -0.331196000000000      0.915180000000000      3.636907000000000
C      -3.438944000000000      1.878445000000000     -1.489518000000000
C      -0.318576000000000      2.180469000000000      3.001464000000000
C      -2.354568000000000      1.785909000000000     -2.549925000000000
C       0.858990000000000      2.768431000000000      2.433495000000000
C      -1.213262000000000      2.524792000000000     -2.503024000000000
C       2.046357000000000      2.123135000000000      2.534071000000000
C      -0.023329000000000      1.986191000000000     -3.064841000000000
C       3.139883000000000      2.234097000000000      1.490600000000000
C       0.019863000000000      0.714710000000000     -3.678973000000000
C       3.762561000000000      0.856791000000000      1.583623000000000
C       1.297935000000000      0.105437000000000     -3.762120000000000
C       4.300177000000000      0.224877000000000      0.514542000000000
C       1.432077000000000     -1.346951000000000     -3.784541000000000
C       4.274806000000000     -1.209882000000000      0.432421000000000
C       0.324461000000000     -2.191966000000000     -3.568409000000000
C       3.623702000000000     -2.021945000000000      1.400947000000000
C       0.548034000000000     -3.455558000000000     -2.852799000000000
C       3.037592000000000     -3.294877000000000      0.973548000000000
C      -0.560858000000000     -4.089276000000000     -2.144455000000000
C      -1.211865000000000     -4.769947000000000      0.161810000000000
C      -0.420406000000000     -4.676622000000000      1.396291000000000
C       1.916578000000000     -3.869862000000000      1.734941000000000
C      -1.846472000000000     -3.529515000000000     -2.277348000000000
C      -2.465002000000000     -4.123784000000000      0.052433000000000
C      -0.894025000000000     -3.920081000000000      2.506432000000000
C       1.460958000000000     -3.205468000000000      2.886694000000000
C      -3.005496000000000     -3.475319000000000      1.214052000000000
C      -2.197645000000000     -3.366532000000000      2.436113000000000
C      -3.816584000000000     -2.333615000000000      1.109464000000000
C      -2.501607000000000     -2.131537000000000      3.062218000000000
C      -4.208319000000000     -0.247863000000000     -0.218198000000000
C      -1.561080000000000      0.117387000000000      3.592313000000000
C      -4.256605000000000      0.576370000000000      1.055230000000000
C      -2.682338000000000      0.654277000000000      2.919417000000000
C      -3.650421000000000     -0.161402000000000      2.244042000000000
C      -3.552892000000000     -1.514874000000000      2.287712000000000
C      -2.873124000000000      2.391430000000000     -0.177280000000000
C      -1.430005000000000      2.628462000000000      2.220245000000000
C      -1.657323000000000      3.168608000000000     -0.130139000000000
C      -0.983314000000000      3.319462000000000      1.067902000000000
C      -0.878723000000000      3.491132000000000     -1.386317000000000
C       0.509727000000000      3.627209000000000      1.231649000000000
C       0.619292000000000      3.211295000000000     -1.199270000000000
C       1.294301000000000      3.189038000000000      0.003906000000000
C       1.097128000000000      2.458236000000000     -2.294748000000000
C       2.538451000000000      2.472558000000000      0.097856000000000
C       2.318820000000000      1.759032000000000     -2.239976000000000
C       3.068519000000000      1.800569000000000     -1.012913000000000
C       2.444151000000000      0.661396000000000     -3.151987000000000
C       4.267923000000000      0.852903000000000     -0.866230000000000
C       3.369623000000000     -0.419568000000000     -2.872940000000000
C       4.151388000000000     -0.382634000000000     -1.748295000000000
C       2.740850000000000     -1.655129000000000     -3.293310000000000
C       4.296448000000000     -1.568329000000000     -0.952358000000000
C       2.939690000000000     -2.822349000000000     -2.573056000000000
C       3.735942000000000     -2.776148000000000     -1.357607000000000
C       1.859923000000000     -3.733118000000000     -2.383248000000000
C       3.148622000000000     -3.647762000000000     -0.392429000000000
C      -0.311459000000000     -4.814978000000000     -0.934610000000000
C       0.951138000000000     -4.692818000000000      1.055149000000000
C       2.066531000000000     -4.345699000000000     -1.081126000000000
C       1.018320000000000     -4.859106000000000     -0.379475000000000
C      -3.349261000000000      1.803304000000000      0.980158000000000
C      -2.592503000000000      1.877153000000000      2.177042000000000
Cl     -4.838914000000000      2.955459000000000     -2.045137000000000
Cl     -6.005205000000000      1.071073000000000      1.438045000000000
Cl     -1.165252000000000      5.244239000000000     -1.897373000000000
Cl      0.781604000000000      5.426130000000000      1.559954000000000
Cl      4.338632000000000      3.576056000000000      1.895495000000000
Cl      5.828857000000000      1.774863000000000     -1.264400000000000
