90

C       1.564090000000000      0.187350000000000     -3.440627000000000
C       0.501109000000000      3.762198000000000     -0.622689000000000
C      -0.505480000000000     -3.501757000000000      3.098381000000000
C      -0.735091000000000      0.958866000000000      3.909742000000000
C       0.157180000000000      0.147671000000000     -3.635380000000000
C       1.733814000000000      2.962918000000000     -1.048397000000000
C      -1.904563000000000     -3.314874000000000      2.865260000000000
C       0.271193000000000     -0.023640000000000      4.121241000000000
C      -0.654954000000000      1.250194000000000     -3.119513000000000
C       2.706888000000000      2.433950000000000     -0.215428000000000
C       1.598671000000000      0.148729000000000      3.644090000000000
C      -2.544034000000000     -2.072501000000000      3.124429000000000
C       0.006628000000000      2.330581000000000     -2.491038000000000
C      -1.771878000000000     -1.124332000000000      3.845496000000000
C       1.433944000000000      2.323700000000000     -2.270739000000000
C      -0.363802000000000     -1.319212000000000      4.089404000000000
C       2.189654000000000      1.259662000000000     -2.709876000000000
C       0.321045000000000     -2.458123000000000      3.633135000000000
C       3.256255000000000      0.768495000000000     -1.917751000000000
C       1.712410000000000     -2.326939000000000      3.185246000000000
C       3.562574000000000     -0.664798000000000     -2.357751000000000
C       2.190296000000000     -3.299111000000000      2.275579000000000
C       2.348157000000000     -0.977083000000000     -3.224702000000000
C       1.309436000000000     -4.269634000000000      1.669871000000000
C       1.743728000000000     -2.207252000000000     -3.210456000000000
C      -0.000062000000000     -4.385354000000000      2.078069000000000
C       0.348149000000000     -2.315674000000000     -3.531434000000000
C      -1.044274000000000     -4.647476000000000      1.123010000000000
C      -0.441519000000000     -1.158314000000000     -3.766841000000000
C      -2.239330000000000     -4.078189000000000      1.684546000000000
C      -1.829363000000000     -1.290629000000000     -3.536596000000000
C      -3.255545000000000     -3.666875000000000      0.864643000000000
C      -2.651802000000000     -0.180882000000000     -3.160095000000000
C      -4.010761000000000     -2.459072000000000      1.179950000000000
C      -2.052974000000000      1.071881000000000     -2.796327000000000
C      -3.609681000000000     -1.598060000000000      2.242403000000000
C      -2.657925000000000      1.877083000000000     -1.771566000000000
C      -3.815427000000000     -0.162446000000000      2.075511000000000
C      -1.903747000000000      2.850295000000000     -1.078751000000000
C      -1.130912000000000      3.424217000000000      1.234901000000000
C      -1.456847000000000      2.725381000000000      2.408950000000000
C      -2.980129000000000      0.779118000000000      2.801618000000000
C      -0.590513000000000      3.100710000000000     -1.479138000000000
C       0.208853000000000      3.598442000000000      0.839720000000000
C      -0.446198000000000      2.168106000000000      3.230094000000000
C      -1.987263000000000      0.271999000000000      3.690261000000000
C       1.217453000000000      3.151783000000000      1.689808000000000
C       0.897829000000000      2.411932000000000      2.855625000000000
C       2.644085000000000      2.812137000000000      1.253239000000000
C       1.917600000000000      1.426366000000000      3.094306000000000
C       3.483648000000000      1.301388000000000     -0.660207000000000
C       2.344227000000000     -1.007851000000000      3.186799000000000
C       4.255405000000000      0.434002000000000      0.318877000000000
C       3.391700000000000     -0.758054000000000      2.255649000000000
C       3.670953000000000      0.539652000000000      1.716266000000000
C       2.948675000000000      1.614382000000000      2.132571000000000
C       3.674549000000000     -1.604604000000000     -1.172234000000000
C       3.159753000000000     -2.969323000000000      1.268879000000000
C       3.008817000000000     -2.912157000000000     -1.192906000000000
C       2.805762000000000     -3.594954000000000      0.027722000000000
C       2.084821000000000     -3.220664000000000     -2.230117000000000
C       1.628755000000000     -4.391724000000000      0.272085000000000
C       0.896485000000000     -3.960672000000000     -1.975632000000000
C       0.598271000000000     -4.514949000000000     -0.699285000000000
C      -0.169986000000000     -3.431400000000000     -2.804482000000000
C      -0.801018000000000     -4.622256000000000     -0.273423000000000
C      -1.529129000000000     -3.504246000000000     -2.420792000000000
C      -1.876755000000000     -4.147309000000000     -1.148362000000000
C      -2.376394000000000     -2.490111000000000     -2.950946000000000
C      -3.112814000000000     -3.778490000000000     -0.560928000000000
C      -3.607022000000000     -2.121878000000000     -2.306962000000000
C      -3.962738000000000     -2.753914000000000     -1.132385000000000
C      -3.800414000000000     -0.692513000000000     -2.465493000000000
C      -4.519865000000000     -1.963268000000000     -0.049958000000000
C      -4.386165000000000      0.041151000000000     -1.454490000000000
C      -4.706024000000000     -0.587970000000000     -0.222568000000000
C      -4.039619000000000      1.496772000000000     -1.222960000000000
C      -4.394631000000000      0.309051000000000      0.858877000000000
C      -2.323060000000000      3.402490000000000      0.277413000000000
C      -2.734457000000000      2.060277000000000      2.238912000000000
C      -4.059635000000000      1.575124000000000      0.299970000000000
C      -3.258103000000000      2.439836000000000      0.979623000000000
C       4.061570000000000     -1.058097000000000      0.027973000000000
C       3.748373000000000     -1.719425000000000      1.263465000000000
Cl      5.120994000000000     -0.727308000000000     -3.369827000000000
Cl      6.051241000000000      0.886706000000000      0.296054000000000
Cl      3.792250000000000      4.221168000000000      1.595975000000000
Cl      0.703491000000000      5.547668000000000     -1.076712000000000
Cl     -3.059722000000000      5.083734000000000      0.091967000000000
Cl     -5.323866000000000      2.596325000000000     -1.986064000000000
