92

C       1.344887000000000     -0.585105000000000      4.265180000000000
C       2.758977000000000      2.918768000000000      1.494585000000000
C      -3.208398000000000     -1.681635000000000     -2.322774000000000
C      -0.557202000000000      2.238857000000000     -3.014739000000000
C       2.231415000000000     -1.327824000000000      3.465191000000000
C       1.757474000000000      2.691114000000000      2.617427000000000
C      -1.911312000000000     -2.226212000000000     -2.921602000000000
C      -1.830038000000000      1.835566000000000     -2.275398000000000
C       3.157936000000000     -0.611753000000000      2.572647000000000
C       0.401903000000000      3.069348000000000      2.587128000000000
C      -2.273745000000000      2.363575000000000     -1.073172000000000
C      -0.890026000000000     -1.448257000000000     -3.480989000000000
C       3.117653000000000      0.795978000000000      2.564034000000000
C      -1.094866000000000     -0.032122000000000     -3.465496000000000
C       2.146516000000000      1.539647000000000      3.339093000000000
C      -2.190149000000000      0.542507000000000     -2.668472000000000
C       1.264826000000000      0.863805000000000      4.159673000000000
C      -3.080501000000000     -0.224128000000000     -1.924493000000000
C      -0.099053000000000      1.261299000000000      4.210874000000000
C      -3.573139000000000      0.304219000000000     -0.706617000000000
C      -0.889479000000000      0.057045000000000      4.431998000000000
C      -4.352042000000000     -0.627763000000000      0.227205000000000
C       0.013118000000000     -1.052092000000000      4.538352000000000
C      -3.869304000000000     -2.060434000000000      0.070150000000000
C      -0.386187000000000     -2.319818000000000      4.112440000000000
C      -3.370940000000000     -2.556458000000000     -1.097250000000000
C       0.550561000000000     -3.159949000000000      3.431315000000000
C      -2.380391000000000     -3.578790000000000     -1.076216000000000
C       1.837603000000000     -2.691291000000000      3.113430000000000
C      -1.588216000000000     -3.438401000000000     -2.269612000000000
C       2.493179000000000     -3.321674000000000      2.018952000000000
C      -0.308427000000000     -3.955465000000000     -2.324536000000000
C       3.483199000000000     -2.668930000000000      1.257511000000000
C       0.723576000000000     -3.245641000000000     -3.017321000000000
C       3.718663000000000     -1.256420000000000      1.406154000000000
C       0.486909000000000     -1.936977000000000     -3.511055000000000
C       4.066031000000000     -0.474767000000000      0.257698000000000
C       1.580798000000000     -0.970037000000000     -3.478967000000000
C       3.868528000000000      0.930866000000000      0.255656000000000
C       2.590150000000000      2.692440000000000     -0.982622000000000
C       1.753048000000000      2.494783000000000     -2.099657000000000
C       1.299156000000000      0.450491000000000     -3.471354000000000
C       3.452155000000000      1.558174000000000      1.423166000000000
C       2.090725000000000      3.243667000000000      0.190250000000000
C       0.408355000000000      2.904302000000000     -2.083149000000000
C      -0.066248000000000      0.879220000000000     -3.522883000000000
C       0.754740000000000      3.686700000000000      0.191257000000000
C      -0.067738000000000      3.539098000000000     -0.949065000000000
C      -0.084335000000000      3.660681000000000      1.373275000000000
C      -1.538580000000000      3.585520000000000     -0.538228000000000
C      -0.557286000000000      2.325845000000000      3.400759000000000
C      -3.160921000000000      1.587645000000000     -0.271232000000000
C      -1.904839000000000      2.226991000000000      2.940032000000000
C      -3.497593000000000      2.071567000000000      1.140698000000000
C      -2.325950000000000      2.832955000000000      1.741886000000000
C      -1.423288000000000      3.542646000000000      0.971856000000000
C      -2.165663000000000     -0.106365000000000      3.842921000000000
C      -3.996989000000000     -0.353231000000000      1.673349000000000
C      -2.571793000000000     -1.429536000000000      3.386509000000000
C      -3.479235000000000     -1.510016000000000      2.293502000000000
C      -1.676598000000000     -2.517506000000000      3.541313000000000
C      -3.378968000000000     -2.564480000000000      1.302872000000000
C      -1.548241000000000     -3.551342000000000      2.528770000000000
C      -2.359888000000000     -3.551362000000000      1.356703000000000
C      -0.202078000000000     -3.978282000000000      2.482516000000000
C      -1.805574000000000     -4.070421000000000      0.123669000000000
C       0.394522000000000     -4.470293000000000      1.294544000000000
C      -0.424036000000000     -4.571470000000000      0.085183000000000
C       1.801133000000000     -4.294383000000000      1.177521000000000
C       0.254660000000000     -4.601146000000000     -1.157579000000000
C       2.440301000000000     -4.277654000000000     -0.090942000000000
C       1.684547000000000     -4.446382000000000     -1.252185000000000
C       3.506870000000000     -3.298006000000000     -0.051460000000000
C       1.971920000000000     -3.621937000000000     -2.397735000000000
C       3.813492000000000     -2.562195000000000     -1.166766000000000
C       3.002536000000000     -2.691450000000000     -2.340206000000000
C       4.390071000000000     -1.166934000000000     -1.071412000000000
C       2.823766000000000     -1.384741000000000     -2.910483000000000
C       3.777828000000000      1.737050000000000     -1.038089000000000
C       2.213810000000000      1.325172000000000     -2.834658000000000
C       3.678223000000000     -0.477971000000000     -2.222773000000000
C       3.385815000000000      0.853752000000000     -2.201296000000000
C      -2.695965000000000      1.032443000000000      3.157987000000000
C      -3.615019000000000      0.900208000000000      2.098767000000000
Cl     -6.158679000000000     -0.462377000000000     -0.088760000000000
Cl     -5.024757000000000      3.104361000000000      1.105360000000000
Cl     -2.355337000000000      5.127806000000000     -1.127151000000000
Cl     -0.942787000000000      3.354642000000000     -4.445220000000000
Cl     -4.624827000000000     -1.871308000000000     -3.515388000000000
Cl      5.352470000000000      2.640992000000000     -1.347801000000000
Cl      3.956767000000000      4.280690000000000      1.964180000000000
Cl      6.235504000000000     -1.208300000000000     -1.309992000000000
