73

C       3.312859000000000      0.512081000000000     -1.295725000000000
C       3.264314000000000      1.459425000000000     -0.008206000000000
C       3.188740000000000      0.484598000000000      1.238769000000000
C       3.374659000000000     -0.986319000000000     -0.791947000000000
C       2.977137000000000     -0.862668000000000      0.638529000000000
C       2.283934000000000     -1.787718000000000     -1.664732000000000
C       2.014712000000000      0.553017000000000     -2.034703000000000
C       1.531285000000000     -0.690278000000000     -2.341286000000000
C       1.195843000000000      1.717413000000000     -2.156106000000000
C       1.980086000000000      2.241409000000000      0.101467000000000
C       1.155000000000000      2.610712000000000     -1.005753000000000
C       1.910674000000000      0.878028000000000      1.961902000000000
C       1.349566000000000      2.041228000000000      1.357427000000000
C       1.112849000000000     -0.003792000000000      2.641637000000000
C       2.198738000000000     -1.752326000000000      1.241599000000000
C       1.521275000000000     -1.478424000000000      2.585249000000000
C       1.271714000000000     -2.619131000000000     -0.878863000000000
C       1.429454000000000     -2.739845000000000      0.494570000000000
C      -0.025959000000000     -2.900814000000000     -1.459255000000000
C       0.246949000000000     -0.889049000000000     -2.925805000000000
C      -0.533243000000000     -2.061576000000000     -2.564943000000000
C       0.059195000000000      1.578876000000000     -2.953843000000000
C      -0.390379000000000      0.273621000000000     -3.391855000000000
C      -1.107587000000000      2.393621000000000     -2.749186000000000
C      -0.043401000000000      3.264987000000000     -0.725759000000000
C      -1.156065000000000      3.197392000000000     -1.608115000000000
C       0.040656000000000      2.453158000000000      1.635862000000000
C      -0.542952000000000      3.486253000000000      0.698015000000000
C      -0.238594000000000      0.380062000000000      2.992887000000000
C      -0.764037000000000      1.663209000000000      2.513179000000000
C      -1.160878000000000     -0.626203000000000      3.365264000000000
C       0.329184000000000     -2.393833000000000      2.522845000000000
C       0.371818000000000     -3.194403000000000      1.336549000000000
C      -0.876340000000000     -2.038479000000000      3.053001000000000
C      -0.986789000000000     -3.555288000000000     -0.648936000000000
C      -0.797447000000000     -3.684544000000000      0.771295000000000
C      -2.408888000000000     -3.416358000000000     -0.868095000000000
C      -1.920241000000000     -2.005877000000000     -2.801922000000000
C      -2.869951000000000     -2.669891000000000     -1.931643000000000
C      -1.813768000000000      0.327998000000000     -3.557742000000000
C      -2.273903000000000      1.641739000000000     -3.146685000000000
C      -2.565427000000000     -0.798368000000000     -3.280040000000000
C      -3.468731000000000      1.764838000000000     -2.447052000000000
C      -2.387898000000000      3.299522000000000     -0.851635000000000
C      -2.038842000000000      3.357150000000000      0.536083000000000
C      -3.532922000000000      2.621998000000000     -1.274679000000000
C      -2.174586000000000      1.862957000000000      2.501121000000000
C      -2.799788000000000      2.682403000000000      1.454243000000000
C      -2.558695000000000     -0.438995000000000      3.210898000000000
C      -3.062373000000000      0.801139000000000      2.798145000000000
C      -2.094503000000000     -2.636318000000000      2.558002000000000
C      -2.059789000000000     -3.471048000000000      1.435941000000000
C      -3.076145000000000     -3.342406000000000      0.420353000000000
C      -3.154280000000000     -1.666713000000000      2.699925000000000
C      -4.139316000000000     -2.457848000000000      0.593050000000000
C      -4.179986000000000     -1.601970000000000      1.763899000000000
C      -4.037067000000000     -1.824162000000000     -1.783269000000000
C      -3.850708000000000     -0.663843000000000     -2.620916000000000
C      -4.281284000000000      0.592894000000000     -2.189312000000000
C      -4.642331000000000     -1.696042000000000     -0.531432000000000
C      -4.379733000000000      1.980989000000000     -0.300242000000000
C      -4.021794000000000      2.025037000000000      1.048195000000000
C      -4.195029000000000      0.859686000000000      1.884882000000000
C      -4.720618000000000     -0.312433000000000      1.356732000000000
C      -4.868144000000000      0.736950000000000     -0.869684000000000
C      -5.036425000000000     -0.382731000000000     -0.057960000000000
Cl      4.595387000000000      0.936784000000000     -2.500762000000000
Cl      4.602871000000000      2.674125000000000      0.068716000000000
Cl      4.619004000000000      0.524397000000000      2.359705000000000
Cl      2.597556000000000     -1.955849000000000      4.009153000000000
Cl      5.033240000000000     -1.710776000000000     -0.803488000000000
Cl      3.041966000000000     -2.884948000000000     -2.932089000000000
Cl     -0.096072000000000      5.206374000000000      1.318462000000000
