94

C       0.849304000000000      3.333803000000000     -2.261880000000000
C      -3.580452000000000      1.948392000000000     -2.081852000000000
C       0.922381000000000     -2.337828000000000      3.281740000000000
C      -3.535268000000000     -2.167748000000000      1.933941000000000
C       0.912341000000000      2.292510000000000     -3.268288000000000
C      -2.766109000000000      3.114101000000000     -1.562685000000000
C       0.989678000000000     -3.296976000000000      2.216118000000000
C      -2.696113000000000     -1.660147000000000      3.080461000000000
C      -0.248397000000000      1.616001000000000     -3.719360000000000
C      -2.808948000000000      3.495021000000000     -0.246530000000000
C      -2.761528000000000     -0.343714000000000      3.487580000000000
C      -0.183061000000000     -3.739341000000000      1.535316000000000
C      -1.495175000000000      2.130268000000000     -3.244310000000000
C      -1.413390000000000     -3.299351000000000      2.074406000000000
C      -1.562595000000000      3.228573000000000     -2.295854000000000
C      -1.488287000000000     -2.387814000000000      3.176807000000000
C      -0.390535000000000      3.780630000000000     -1.722170000000000
C      -0.305436000000000     -1.825061000000000      3.753711000000000
C      -0.429944000000000      4.177663000000000     -0.335236000000000
C      -0.358290000000000     -0.448423000000000      4.201979000000000
C       0.775290000000000      4.082944000000000      0.422569000000000
C       0.835289000000000      0.321702000000000      4.105118000000000
C       1.976770000000000      3.632295000000000     -0.155149000000000
C       2.054442000000000     -0.235854000000000      3.611823000000000
C       2.019674000000000      3.280203000000000     -1.485349000000000
C       2.106215000000000     -1.536853000000000      3.228465000000000
C       2.957344000000000      2.203737000000000     -1.989625000000000
C       3.028396000000000     -2.005277000000000      2.123955000000000
C       2.153701000000000      1.630997000000000     -3.137587000000000
C       2.224571000000000     -3.143801000000000      1.537742000000000
C       2.261661000000000      0.326568000000000     -3.514847000000000
C       2.316118000000000     -3.489294000000000      0.226021000000000
C       1.140034000000000     -0.361195000000000     -4.047072000000000
C       1.183252000000000     -4.009222000000000     -0.464023000000000
C      -0.160469000000000      0.226471000000000     -4.090387000000000
C      -0.111287000000000     -4.065169000000000      0.132484000000000
C      -1.324752000000000     -0.637229000000000     -3.918402000000000
C      -1.284504000000000     -3.879915000000000     -0.711643000000000
C      -2.538385000000000     -0.076750000000000     -3.352064000000000
C      -3.984429000000000     -0.358120000000000     -1.318872000000000
C      -4.017414000000000     -1.361310000000000     -0.340419000000000
C      -2.499795000000000     -3.356849000000000     -0.109747000000000
C      -2.607552000000000      1.310738000000000     -3.080426000000000
C      -3.942965000000000      0.987199000000000     -0.964685000000000
C      -3.966087000000000     -1.047855000000000      1.006393000000000
C      -2.555757000000000     -3.125934000000000      1.240904000000000
C      -3.957031000000000      1.346261000000000      0.402217000000000
C      -3.955257000000000      0.327630000000000      1.413618000000000
C      -3.686905000000000      2.795276000000000      0.784475000000000
C      -3.502547000000000      0.650381000000000      2.767026000000000
C      -2.825227000000000      2.891289000000000      2.021593000000000
C      -2.820249000000000      1.871288000000000      2.973701000000000
C      -1.646407000000000      4.016955000000000      0.376472000000000
C      -1.581899000000000      0.265001000000000      4.087383000000000
C      -1.663572000000000      3.628612000000000      1.771383000000000
C      -1.618251000000000      1.646468000000000      3.763179000000000
C       0.755844000000000      3.699349000000000      1.817213000000000
C       0.799139000000000      1.712325000000000      3.767200000000000
C       1.971620000000000      3.006070000000000      2.096990000000000
C       1.986207000000000      2.030177000000000      3.042566000000000
C       2.851618000000000      2.936672000000000      0.867314000000000
C       2.893659000000000      0.823261000000000      2.926427000000000
C       3.102088000000000      1.468807000000000      0.455841000000000
C       3.123545000000000      0.456865000000000      1.443449000000000
C       3.167815000000000      1.119106000000000     -0.911733000000000
C       3.207654000000000     -0.899499000000000      1.060180000000000
C       3.271760000000000     -0.240161000000000     -1.296256000000000
C       3.290358000000000     -1.249976000000000     -0.309091000000000
C       3.203226000000000     -0.622367000000000     -2.794441000000000
C       3.234508000000000     -2.740220000000000     -0.722586000000000
C       2.495696000000000     -1.945481000000000     -2.991032000000000
C       2.507444000000000     -2.916554000000000     -2.038100000000000
C       1.325793000000000     -1.765024000000000     -3.804099000000000
C       1.349440000000000     -3.745083000000000     -1.856904000000000
C       0.220307000000000     -2.588862000000000     -3.676331000000000
C       0.225979000000000     -3.616726000000000     -2.669042000000000
C      -1.107750000000000     -2.034269000000000     -3.749194000000000
C      -1.091594000000000     -3.717437000000000     -2.112319000000000
C      -3.359357000000000     -0.904180000000000     -2.535859000000000
C      -3.578456000000000     -2.694411000000000     -0.952918000000000
C      -1.932262000000000     -2.812492000000000     -2.871283000000000
C      -3.061514000000000     -2.240262000000000     -2.300335000000000
C      -0.442161000000000      3.418083000000000      2.502591000000000
C      -0.429946000000000      2.386685000000000      3.520307000000000
Cl      4.572647000000000      2.893669000000000     -2.525090000000000
Cl      4.898367000000000     -0.635235000000000     -3.507261000000000
Cl      4.938450000000000     -3.430147000000000     -0.782501000000000
Cl      4.664970000000000     -2.537840000000000      2.768845000000000
Cl      4.462892000000000      3.793280000000000      1.105865000000000
Cl      4.510294000000000      1.090959000000000      3.758785000000000
Cl     -5.112174000000000      2.531780000000000     -2.949057000000000
Cl     -5.296641000000000      3.716208000000000      0.998699000000000
Cl     -5.008292000000000     -3.854684000000000     -1.165773000000000
Cl     -5.011517000000000     -3.104346000000000      2.569723000000000
