94

C       0.056005000000000     -0.429894000000000      3.989003000000000
C      -1.157960000000000      3.725441000000000      2.733268000000000
C       0.056004000000000     -0.429889000000000     -3.989003000000000
C      -1.157961000000000      3.725445000000000     -2.733263000000000
C       1.335462000000000      0.165968000000000      3.929322000000000
C      -1.871619000000000      2.612380000000000      3.311775000000000
C       1.335461000000000      0.165972000000000     -3.929322000000000
C      -1.871620000000000      2.612383000000000     -3.311771000000000
C       1.513213000000000      1.584761000000000      3.786675000000000
C      -2.945790000000000      2.067976000000000      2.649293000000000
C      -2.945791000000000      2.067979000000000     -2.649289000000000
C       1.513211000000000      1.584766000000000     -3.786674000000000
C       0.343460000000000      2.356903000000000      3.876783000000000
C       0.343459000000000      2.356907000000000     -3.876781000000000
C      -0.947547000000000      1.748979000000000      3.983469000000000
C      -0.947548000000000      1.748984000000000     -3.983467000000000
C      -1.128734000000000      0.342404000000000      3.939189000000000
C      -1.128736000000000      0.342408000000000     -3.939188000000000
C      -2.294261000000000     -0.204510000000000      3.263947000000000
C      -2.294262000000000     -0.204506000000000     -3.263947000000000
C      -2.303697000000000     -1.656062000000000      2.819677000000000
C      -2.303698000000000     -1.656059000000000     -2.819678000000000
C      -0.923920000000000     -2.271888000000000      2.725178000000000
C      -0.923921000000000     -2.271886000000000     -2.725181000000000
C       0.127817000000000     -1.729955000000000      3.340200000000000
C       0.127816000000000     -1.729951000000000     -3.340202000000000
C       1.552761000000000     -2.035274000000000      2.926414000000000
C       1.552760000000000     -2.035271000000000     -2.926417000000000
C       2.251862000000000     -0.759481000000000      3.327528000000000
C       2.251861000000000     -0.759477000000000     -3.327530000000000
C       3.335300000000000     -0.300385000000000      2.670956000000000
C       3.335299000000000     -0.300382000000000     -2.670958000000000
C       3.571279000000000      1.116322000000000      2.558691000000000
C       3.571278000000000      1.116325000000000     -2.558692000000000
C       2.646908000000000      2.085006000000000      3.025423000000000
C       2.646907000000000      2.085009000000000     -3.025422000000000
C       2.537347000000000      3.352633000000000      2.298652000000000
C       2.537346000000000      3.352636000000000     -2.298650000000000
C       1.264309000000000      4.073322000000000      2.315450000000000
C      -0.488329000000000      4.856104000000000      0.725892000000000
C      -0.488329000000000      4.856104000000000     -0.725887000000000
C       1.264308000000000      4.073324000000000     -2.315446000000000
C       0.208143000000000      3.589385000000000      3.119974000000000
C      -1.524874000000000      4.238880000000000      1.456470000000000
C      -1.524875000000000      4.238881000000000     -1.456464000000000
C       0.208142000000000      3.589389000000000     -3.119971000000000
C      -2.642185000000000      3.637079000000000      0.724982000000000
C      -2.642186000000000      3.637080000000000     -0.724977000000000
C      -3.376234000000000      2.611905000000000      1.378462000000000
C      -3.376235000000000      2.611907000000000     -1.378458000000000
C      -4.054221000000000      1.580303000000000      0.683162000000000
C      -4.054223000000000      1.580303000000000     -0.683159000000000
C      -3.193293000000000      0.655415000000000      2.674504000000000
C      -3.193293000000000      0.655418000000000     -2.674502000000000
C      -4.114235000000000      0.305283000000000      1.505783000000000
C      -4.114236000000000      0.305284000000000     -1.505782000000000
C      -2.769631000000000     -1.787710000000000      1.384232000000000
C      -2.769631000000000     -1.787707000000000     -1.384233000000000
C      -1.940376000000000     -2.666541000000000      0.687343000000000
C      -1.940376000000000     -2.666539000000000     -0.687345000000000
C      -0.744904000000000     -3.110069000000000      1.483181000000000
C      -0.744905000000000     -3.110067000000000     -1.483184000000000
C       0.541858000000000     -2.749981000000000      0.708511000000000
C       0.541858000000000     -2.749981000000000     -0.708515000000000
C       1.654265000000000     -2.240982000000000      1.405952000000000
C       1.654264000000000     -2.240981000000000     -1.405956000000000
C       2.779009000000000     -1.748959000000000      0.704771000000000
C       2.779009000000000     -1.748958000000000     -0.704775000000000
C       3.914129000000000     -1.047648000000000      1.482677000000000
C       3.914128000000000     -1.047646000000000     -1.482679000000000
C       4.509221000000000      0.087102000000000      0.679400000000000
C       4.509219000000000      0.087103000000000     -0.679401000000000
C       4.367139000000000      1.329331000000000      1.393584000000000
C       4.367138000000000      1.329333000000000     -1.393584000000000
C       4.285149000000000      2.543143000000000      0.722492000000000
C       4.285148000000000      2.543143000000000     -0.722491000000000
C       3.389127000000000      3.557867000000000      1.184331000000000
C       3.389126000000000      3.557868000000000     -1.184328000000000
C       0.868260000000000      4.832231000000000      1.175473000000000
C       0.868259000000000      4.832232000000000     -1.175468000000000
C       2.922014000000000      4.258527000000000      0.000002000000000
C       1.696853000000000      4.874353000000000      0.000002000000000
C      -3.570886000000000     -0.863120000000000      0.707022000000000
C      -3.570887000000000     -0.863119000000000     -0.707021000000000
Cl      2.201124000000000     -3.507801000000000      3.816863000000000
Cl      5.189291000000000     -2.284852000000000      1.966525000000000
Cl      5.189292000000000     -2.284848000000000     -1.966529000000000
Cl      2.201124000000000     -3.507797000000000     -3.816867000000000
Cl     -0.768173000000000     -4.919986000000000      1.842213000000000
Cl     -0.768176000000000     -4.919984000000000     -1.842217000000000
Cl     -5.827472000000000     -0.059158000000000      2.087454000000000
Cl     -5.827472000000000     -0.059158000000000     -2.087454000000000
Cl     -3.395501000000000     -2.647088000000000      3.959784000000000
Cl     -3.395504000000000     -2.647084000000000     -3.959785000000000
