94

C      -0.857815000000000      3.153903000000000     -2.359082000000000
C      -2.060881000000000     -1.023156000000000     -3.962564000000000
C       0.930318000000000     -2.601050000000000      3.250980000000000
C      -0.883106000000000     -4.797125000000000     -0.225938000000000
C       0.439020000000000      2.568808000000000     -2.889020000000000
C      -2.788573000000000      0.096108000000000     -3.446493000000000
C       2.147293000000000     -2.885860000000000      2.512221000000000
C      -1.356876000000000     -4.479815000000000      1.092070000000000
C       0.522661000000000      1.476603000000000     -3.785051000000000
C      -3.675044000000000     -0.071399000000000     -2.397774000000000
C      -2.520836000000000     -3.729713000000000      1.249304000000000
C       2.161825000000000     -3.765042000000000      1.398857000000000
C      -0.711547000000000      0.858978000000000     -4.139313000000000
C       0.952498000000000     -4.478172000000000      1.155516000000000
C      -1.963878000000000      1.256520000000000     -3.492657000000000
C      -0.243574000000000     -4.244562000000000      1.943510000000000
C      -2.031524000000000      2.207006000000000     -2.478435000000000
C      -0.305011000000000     -3.235094000000000      2.932826000000000
C      -2.959427000000000      2.034467000000000     -1.402607000000000
C      -1.537145000000000     -2.474800000000000      3.101608000000000
C      -2.754957000000000      2.767894000000000     -0.094400000000000
C      -1.419416000000000     -1.123562000000000      3.540940000000000
C      -1.324012000000000      3.231159000000000      0.086916000000000
C      -0.180623000000000     -0.536886000000000      3.827099000000000
C      -0.485758000000000      3.419155000000000     -0.921920000000000
C       0.982421000000000     -1.271250000000000      3.697373000000000
C       1.011504000000000      3.452317000000000     -0.716762000000000
C       2.294765000000000     -0.616288000000000      3.324135000000000
C       1.486621000000000      2.868805000000000     -2.016616000000000
C       2.973307000000000     -1.736230000000000      2.565986000000000
C       2.677676000000000      2.192141000000000     -2.104943000000000
C       3.854561000000000     -1.493765000000000      1.560601000000000
C       2.828074000000000      1.155471000000000     -3.049723000000000
C       3.949283000000000     -2.394631000000000      0.457836000000000
C       1.738513000000000      0.697636000000000     -3.848004000000000
C       3.057138000000000     -3.491506000000000      0.294930000000000
C       1.689082000000000     -0.718416000000000     -4.204481000000000
C       2.681326000000000     -3.891472000000000     -1.064342000000000
C       0.391206000000000     -1.338457000000000     -4.435200000000000
C      -1.053725000000000     -3.152757000000000     -3.503077000000000
C      -0.747628000000000     -4.138124000000000     -2.533511000000000
C       1.376649000000000     -4.522582000000000     -1.283097000000000
C      -0.778168000000000     -0.515744000000000     -4.426403000000000
C      -2.182064000000000     -2.293976000000000     -3.367186000000000
C      -1.549788000000000     -4.304858000000000     -1.369004000000000
C       0.562401000000000     -4.839750000000000     -0.158300000000000
C      -3.076967000000000     -2.484644000000000     -2.223430000000000
C      -2.760547000000000     -3.487396000000000     -1.224580000000000
C      -3.865260000000000     -1.378001000000000     -1.814577000000000
C      -3.262274000000000     -3.284576000000000      0.084405000000000
C      -4.304088000000000     -1.189918000000000     -0.475129000000000
C      -4.007595000000000     -2.134219000000000      0.461349000000000
C      -3.798004000000000      0.924772000000000     -1.395899000000000
C      -2.647809000000000     -2.779003000000000      2.278831000000000
C      -4.421099000000000      0.293762000000000     -0.151338000000000
C      -3.757403000000000     -1.792934000000000      1.919138000000000
C      -2.898649000000000      1.832031000000000      1.087927000000000
C      -2.292593000000000     -0.089816000000000      2.986308000000000
C      -1.865608000000000      2.055404000000000      2.008305000000000
C      -1.576029000000000      1.116664000000000      2.961870000000000
C      -0.817477000000000      2.997940000000000      1.493034000000000
C      -0.190424000000000      0.951518000000000      3.537716000000000
C       0.560825000000000      2.308675000000000      1.505052000000000
C       0.860941000000000      1.322964000000000      2.475938000000000
C       1.454310000000000      2.545032000000000      0.445729000000000
C       2.058434000000000      0.581721000000000      2.380019000000000
C       2.665679000000000      1.817157000000000      0.358651000000000
C       2.968381000000000      0.835786000000000      1.326341000000000
C       3.557960000000000      1.976986000000000     -0.890207000000000
C       4.205403000000000     -0.076193000000000      1.148111000000000
C       4.240869000000000      0.675735000000000     -1.249269000000000
C       4.534804000000000     -0.267186000000000     -0.315581000000000
C       3.852837000000000      0.266123000000000     -2.571537000000000
C       4.455645000000000     -1.661561000000000     -0.663282000000000
C       3.823900000000000     -1.066518000000000     -2.935095000000000
C       4.137011000000000     -2.065651000000000     -1.950002000000000
C       2.746298000000000     -1.562316000000000     -3.762180000000000
C       3.257199000000000     -3.189947000000000     -2.151686000000000
C       0.188434000000000     -2.697913000000000     -4.102772000000000
C       0.691275000000000     -4.321536000000000     -2.504343000000000
C       2.498096000000000     -2.917004000000000     -3.353756000000000
C       1.237150000000000     -3.468104000000000     -3.512502000000000
C      -3.615686000000000      0.630421000000000      1.088019000000000
C      -3.310947000000000     -0.351647000000000      2.059046000000000
Cl      1.608488000000000      5.173361000000000     -0.441075000000000
Cl      4.772447000000000      3.334897000000000     -0.620252000000000
Cl      5.626503000000000      0.623243000000000      2.086216000000000
Cl      3.231896000000000     -0.078939000000000      4.810094000000000
Cl     -0.737506000000000      4.561360000000000      2.464713000000000
Cl      0.067289000000000      1.962627000000000      5.051053000000000
Cl     -6.176314000000000      0.817577000000000      0.070040000000000
Cl     -5.265033000000000     -2.084365000000000      2.967987000000000
Cl     -3.932096000000000      4.195901000000000      0.039218000000000
Cl     -1.265236000000000      4.739915000000000     -3.254615000000000
