94

C       0.154572000000000      0.919477000000000      3.858116000000000
C      -3.944728000000000      1.413491000000000      1.661373000000000
C       1.525044000000000     -2.238387000000000     -3.307270000000000
C      -2.777534000000000     -0.839713000000000     -3.351713000000000
C       0.382921000000000      2.205502000000000      3.285602000000000
C      -3.324445000000000      0.471208000000000      2.664502000000000
C       1.729565000000000     -0.911219000000000     -3.796571000000000
C      -2.170912000000000     -2.149243000000000     -3.302940000000000
C      -0.648317000000000      2.905256000000000      2.593958000000000
C      -3.395380000000000     -0.879225000000000      2.541734000000000
C      -2.460011000000000     -3.010010000000000     -2.281607000000000
C       0.638162000000000     -0.084168000000000     -4.196876000000000
C      -1.943052000000000      2.335127000000000      2.659875000000000
C      -0.628143000000000     -0.715970000000000     -4.250408000000000
C      -2.185667000000000      1.080354000000000      3.282909000000000
C      -0.821964000000000     -2.056127000000000     -3.823180000000000
C      -1.121539000000000      0.301393000000000      3.817890000000000
C       0.230182000000000     -2.819523000000000     -3.250677000000000
C      -1.188146000000000     -1.134575000000000      3.678351000000000
C      -0.072502000000000     -3.706046000000000     -2.143957000000000
C       0.033652000000000     -1.853871000000000      3.564089000000000
C       0.937549000000000     -3.939621000000000     -1.175383000000000
C       1.301345000000000     -1.189124000000000      3.597374000000000
C       2.233154000000000     -3.334155000000000     -1.273023000000000
C       1.361570000000000      0.155471000000000      3.754573000000000
C       2.518384000000000     -2.514119000000000     -2.313955000000000
C       2.468250000000000      0.981772000000000      3.134672000000000
C       3.475027000000000     -1.350206000000000     -2.172386000000000
C       1.743736000000000      2.282319000000000      2.866579000000000
C       2.884268000000000     -0.367237000000000     -3.158318000000000
C       2.078547000000000      3.090987000000000      1.834940000000000
C       2.989347000000000      0.969561000000000     -2.987988000000000
C       1.078209000000000      3.872648000000000      1.171584000000000
C       1.941669000000000      1.838725000000000     -3.443082000000000
C      -0.309736000000000      3.737231000000000      1.466051000000000
C       0.721970000000000      1.348903000000000     -3.973220000000000
C      -1.280656000000000      3.928181000000000      0.394087000000000
C      -0.502094000000000      2.120332000000000     -3.729661000000000
C      -2.571799000000000      3.254966000000000      0.487051000000000
C      -3.918861000000000      1.558167000000000     -0.794254000000000
C      -3.627555000000000      1.000722000000000     -2.056774000000000
C      -1.774274000000000      1.422978000000000     -3.665888000000000
C      -2.886650000000000      2.526042000000000      1.602030000000000
C      -4.106737000000000      0.749347000000000      0.306680000000000
C      -3.584527000000000     -0.393040000000000     -2.254644000000000
C      -1.838677000000000      0.032394000000000     -3.955349000000000
C      -4.093842000000000     -0.678290000000000      0.134922000000000
C      -3.859049000000000     -1.242676000000000     -1.128082000000000
C      -4.102025000000000     -1.565134000000000      1.385746000000000
C      -3.581584000000000     -2.740416000000000     -1.285198000000000
C      -3.228551000000000     -2.791823000000000      1.198695000000000
C      -2.993880000000000     -3.332303000000000     -0.023069000000000
C      -2.326612000000000     -1.699804000000000      3.037975000000000
C      -1.423996000000000     -3.788319000000000     -1.685264000000000
C      -2.221244000000000     -2.857265000000000      2.218202000000000
C      -1.737714000000000     -3.964564000000000     -0.305167000000000
C       0.142777000000000     -3.003263000000000      2.728947000000000
C       0.622285000000000     -4.105276000000000      0.207424000000000
C       1.475841000000000     -3.066136000000000      2.212686000000000
C       1.710283000000000     -3.603794000000000      0.989577000000000
C       2.322438000000000     -1.936292000000000      2.762981000000000
C       2.830098000000000     -3.106610000000000      0.100243000000000
C       2.844924000000000     -1.041852000000000      1.617124000000000
C       3.087584000000000     -1.602316000000000      0.341905000000000
C       2.928741000000000      0.355876000000000      1.799432000000000
C       3.411900000000000     -0.762743000000000     -0.745309000000000
C       3.269749000000000      1.196292000000000      0.713061000000000
C       3.510801000000000      0.636437000000000     -0.560229000000000
C       3.207110000000000      2.732991000000000      0.884689000000000
C       3.708366000000000      1.557243000000000     -1.788053000000000
C       2.746754000000000      3.409435000000000     -0.388765000000000
C       2.975838000000000      2.868613000000000     -1.614000000000000
C       1.534174000000000      4.145340000000000     -0.148104000000000
C       1.999868000000000      3.034604000000000     -2.658980000000000
C       0.601288000000000      4.360993000000000     -1.161082000000000
C       0.848838000000000      3.781970000000000     -2.459365000000000
C      -0.799229000000000      4.295985000000000     -0.886591000000000
C      -0.399160000000000      3.334859000000000     -3.007060000000000
C      -3.423952000000000      3.007649000000000     -0.747276000000000
C      -2.786141000000000      1.912642000000000     -2.798000000000000
C      -1.433504000000000      3.764918000000000     -2.090390000000000
C      -2.614391000000000      3.078976000000000     -2.020733000000000
C      -0.967027000000000     -3.489481000000000      1.984809000000000
C      -0.717369000000000     -4.062145000000000      0.682404000000000
Cl      3.897131000000000      1.179609000000000      4.272903000000000
Cl      4.844254000000000      3.358960000000000      1.443802000000000
Cl      5.510310000000000      1.813221000000000     -2.076771000000000
Cl      5.201571000000000     -1.828116000000000     -2.584654000000000
Cl      3.732096000000000     -2.554473000000000      3.768804000000000
Cl      4.389992000000000     -4.049735000000000      0.358488000000000
Cl     -5.839899000000000     -2.014218000000000      1.820690000000000
Cl     -5.130598000000000     -3.614594000000000     -1.802739000000000
Cl     -5.557834000000000      2.073027000000000      2.281528000000000
Cl     -4.840060000000000      4.206448000000000     -0.799112000000000
