94

C       0.302037000000000     -0.177323000000000      3.898568000000000
C       4.204719000000000     -1.165440000000000      1.564307000000000
C      -1.669819000000000      1.310141000000000     -3.656773000000000
C       2.611085000000000     -0.071032000000000     -3.728754000000000
C       0.043532000000000     -1.561934000000000      3.648860000000000
C       3.650279000000000     -0.032343000000000      2.389226000000000
C      -1.898694000000000     -0.093527000000000     -3.821397000000000
C       1.986820000000000      1.201657000000000     -3.930179000000000
C       1.029552000000000     -2.410177000000000      3.055647000000000
C       3.649507000000000      1.269792000000000      1.935124000000000
C       2.321237000000000      2.274484000000000     -3.112521000000000
C      -0.833978000000000     -1.000070000000000     -4.121371000000000
C       2.317217000000000     -1.854950000000000      2.900321000000000
C       0.411632000000000     -0.408271000000000     -4.422001000000000
C       2.591840000000000     -0.473814000000000      3.209106000000000
C       0.622859000000000      1.008232000000000     -4.319241000000000
C       1.564102000000000      0.413514000000000      3.630543000000000
C      -0.383741000000000      1.885264000000000     -3.837508000000000
C       1.610721000000000      1.792715000000000      3.184904000000000
C      -0.003257000000000      3.016360000000000     -2.997532000000000
C       0.359974000000000      2.472036000000000      2.999375000000000
C      -0.949036000000000      3.458501000000000     -2.018225000000000
C      -0.878205000000000      1.832839000000000      3.268063000000000
C      -2.224011000000000      2.841685000000000     -1.872093000000000
C      -0.910666000000000      0.546798000000000      3.722712000000000
C      -2.583582000000000      1.804462000000000     -2.678037000000000
C      -2.054465000000000     -0.388509000000000      3.392628000000000
C      -3.509157000000000      0.707492000000000     -2.201579000000000
C      -1.340112000000000     -1.722237000000000      3.366816000000000
C      -2.989330000000000     -0.475004000000000     -2.988603000000000
C      -1.745412000000000     -2.739310000000000      2.567518000000000
C      -3.064506000000000     -1.741181000000000     -2.515832000000000
C      -0.790771000000000     -3.654968000000000      2.018769000000000
C      -2.047195000000000     -2.697281000000000     -2.849974000000000
C       0.614193000000000     -3.466829000000000      2.167831000000000
C      -0.879080000000000     -2.343766000000000     -3.573893000000000
C       1.502739000000000     -3.891677000000000      1.092127000000000
C       0.370685000000000     -3.041338000000000     -3.261201000000000
C       2.782000000000000     -3.221209000000000      0.933161000000000
C       3.997531000000000     -1.840179000000000     -0.791606000000000
C       3.609602000000000     -1.581081000000000     -2.140984000000000
C       1.632436000000000     -2.346274000000000     -3.457999000000000
C       3.174981000000000     -2.268818000000000      1.843488000000000
C       4.264645000000000     -0.825153000000000      0.090282000000000
C       3.521677000000000     -0.268879000000000     -2.647265000000000
C       1.643424000000000     -1.070524000000000     -4.064884000000000
C       4.221601000000000      0.554351000000000     -0.386019000000000
C       3.862080000000000      0.829546000000000     -1.761594000000000
C       4.022922000000000      1.592880000000000      0.556572000000000
C       3.319664000000000      2.111254000000000     -2.064101000000000
C       3.418482000000000      2.822523000000000      0.224912000000000
C       3.074374000000000      3.084703000000000     -1.079541000000000
C       2.686903000000000      2.201875000000000      2.377702000000000
C       1.362230000000000      3.223082000000000     -2.708110000000000
C       2.620804000000000      3.367464000000000      1.396283000000000
C       1.873605000000000      3.937400000000000     -1.459719000000000
C       0.171314000000000      3.388527000000000      1.914214000000000
C      -0.516672000000000      3.898117000000000     -0.723720000000000
C      -1.191637000000000      3.337185000000000      1.514837000000000
C      -1.528643000000000      3.588110000000000      0.224003000000000
C      -1.976876000000000      2.371201000000000      2.371775000000000
C      -2.710254000000000      2.920559000000000     -0.438820000000000
C      -2.572272000000000      1.245941000000000      1.497461000000000
C      -2.923337000000000      1.509369000000000      0.152136000000000
C      -2.623117000000000     -0.075195000000000      1.992041000000000
C      -3.322746000000000      0.450704000000000     -0.690437000000000
C      -3.040941000000000     -1.134618000000000      1.150968000000000
C      -3.390346000000000     -0.871153000000000     -0.190256000000000
C      -2.949078000000000     -2.594347000000000      1.655628000000000
C      -3.677046000000000     -2.041059000000000     -1.161531000000000
C      -2.584050000000000     -3.539388000000000      0.531397000000000
C      -2.916318000000000     -3.284097000000000     -0.758831000000000
C      -1.342476000000000     -4.208791000000000      0.831207000000000
C      -2.022743000000000     -3.684822000000000     -1.818964000000000
C      -0.491370000000000     -4.649160000000000     -0.179850000000000
C      -0.849631000000000     -4.374865000000000     -1.550933000000000
C       0.925156000000000     -4.525718000000000     -0.041333000000000
C       0.345273000000000     -4.061386000000000     -2.278011000000000
C       3.528023000000000     -3.242644000000000     -0.391167000000000
C       2.725094000000000     -2.625731000000000     -2.578129000000000
C       1.456777000000000     -4.278686000000000     -1.374380000000000
C       2.625496000000000     -3.588981000000000     -1.548513000000000
C       1.195273000000000      3.695902000000000      0.985889000000000
C       0.847632000000000      3.957941000000000     -0.344334000000000
Cl     -3.383926000000000     -0.312658000000000      4.657236000000000
Cl     -4.529736000000000     -3.067656000000000      2.470552000000000
Cl     -5.493341000000000     -2.344558000000000     -1.235472000000000
Cl     -5.271242000000000      1.089860000000000     -2.563996000000000
Cl     -3.312856000000000      3.198535000000000      3.322590000000000
Cl     -4.256686000000000      3.900878000000000     -0.266774000000000
Cl      4.963433000000000     -4.423617000000000     -0.294254000000000
Cl      5.889437000000000     -1.664825000000000      2.197046000000000
Cl      3.398105000000000      4.885224000000000      2.135679000000000
Cl      2.365347000000000      5.687923000000000     -1.852721000000000
