94

C      -1.069636000000000     -3.974570000000000      0.656147000000000
C       3.468699000000000     -2.887839000000000      0.853778000000000
C      -1.069636000000000      3.974570000000000      0.656147000000000
C       3.468699000000000      2.887839000000000      0.853777000000000
C      -0.804087000000000     -3.925774000000000     -0.746520000000000
C       2.379087000000000     -3.328189000000000      1.806974000000000
C      -0.804087000000000      3.925774000000000     -0.746521000000000
C       2.379087000000000      3.328190000000000      1.806973000000000
C       0.518216000000000     -3.764818000000000     -1.252029000000000
C       2.150567000000000     -2.676263000000000      2.981392000000000
C       2.150567000000000      2.676264000000000      2.981392000000000
C       0.518216000000000      3.764817000000000     -1.252030000000000
C       1.562444000000000     -3.820164000000000     -0.296928000000000
C       1.562444000000000      3.820164000000000     -0.296929000000000
C       1.302519000000000     -3.937211000000000      1.098765000000000
C       1.302519000000000      3.937211000000000      1.098764000000000
C      -0.029194000000000     -3.925789000000000      1.615327000000000
C      -0.029194000000000      3.925790000000000      1.615327000000000
C      -0.277401000000000     -3.246329000000000      2.871855000000000
C      -0.277401000000000      3.246330000000000      2.871854000000000
C      -1.547956000000000     -2.630123000000000      3.054992000000000
C      -1.547956000000000      2.630123000000000      3.054992000000000
C      -2.567548000000000     -2.698004000000000      2.051410000000000
C      -2.567548000000000      2.698004000000000      2.051410000000000
C      -2.345762000000000     -3.366615000000000      0.893801000000000
C      -2.345762000000000      3.366615000000000      0.893801000000000
C      -2.991490000000000     -2.942052000000000     -0.407363000000000
C      -2.991490000000000      2.942052000000000     -0.407364000000000
C      -1.925579000000000     -3.340175000000000     -1.403738000000000
C      -1.925579000000000      3.340175000000000     -1.403739000000000
C      -1.745467000000000     -2.673242000000000     -2.567527000000000
C      -1.745467000000000      2.673241000000000     -2.567527000000000
C      -0.438247000000000     -2.558373000000000     -3.142473000000000
C      -0.438247000000000      2.558373000000000     -3.142473000000000
C       0.729181000000000     -3.016771000000000     -2.465089000000000
C       0.729181000000000      3.016770000000000     -2.465090000000000
C       1.978846000000000     -2.291437000000000     -2.650104000000000
C       1.978846000000000      2.291437000000000     -2.650104000000000
C       2.993547000000000     -2.329226000000000     -1.605085000000000
C       4.157948000000000     -0.709411000000000     -0.087171000000000
C       4.157948000000000      0.709411000000000     -0.087172000000000
C       2.993547000000000      2.329226000000000     -1.605086000000000
C       2.788412000000000     -3.107322000000000     -0.499107000000000
C       3.847201000000000     -1.427284000000000      1.047380000000000
C       3.847201000000000      1.427285000000000      1.047380000000000
C       2.788412000000000      3.107322000000000     -0.499108000000000
C       3.555152000000000     -0.728926000000000      2.268244000000000
C       3.555152000000000      0.728927000000000      2.268244000000000
C       2.804054000000000     -1.408624000000000      3.276764000000000
C       2.804054000000000      1.408625000000000      3.276764000000000
C       1.929728000000000     -0.697371000000000      4.127636000000000
C       1.929728000000000      0.697372000000000      4.127636000000000
C       0.815800000000000     -2.649637000000000      3.555090000000000
C       0.815800000000000      2.649637000000000      3.555089000000000
C       0.677774000000000     -1.427318000000000      4.265761000000000
C       0.677774000000000      1.427319000000000      4.265760000000000
C      -1.683510000000000     -1.397472000000000      3.760605000000000
C      -1.683510000000000      1.397473000000000      3.760605000000000
C      -2.792806000000000     -0.676366000000000      3.202791000000000
C      -2.792806000000000      0.676367000000000      3.202791000000000
C      -3.457730000000000     -1.473651000000000      2.101408000000000
C      -3.457730000000000      1.473652000000000      2.101408000000000
C      -3.403209000000000     -0.706749000000000      0.761547000000000
C      -3.403209000000000      0.706750000000000      0.761547000000000
C      -3.192626000000000     -1.410703000000000     -0.443527000000000
C      -3.192626000000000      1.410703000000000     -0.443528000000000
C      -2.995618000000000     -0.706038000000000     -1.654997000000000
C      -2.995618000000000      0.706037000000000     -1.654997000000000
C      -2.609729000000000     -1.480585000000000     -2.937584000000000
C      -2.609729000000000      1.480584000000000     -2.937584000000000
C      -1.656728000000000     -0.678500000000000     -3.798301000000000
C      -1.656728000000000      0.678500000000000     -3.798302000000000
C      -0.416764000000000     -1.395735000000000     -3.959659000000000
C      -0.416764000000000      1.395734000000000     -3.959659000000000
C       0.789784000000000     -0.723950000000000     -4.150810000000000
C       0.789784000000000      0.723949000000000     -4.150810000000000
C       1.979119000000000     -1.185951000000000     -3.523744000000000
C       1.979119000000000      1.185951000000000     -3.523744000000000
C       4.066141000000000     -1.251351000000000     -1.503043000000000
C       4.066141000000000      1.251351000000000     -1.503044000000000
C       2.785129000000000     -0.000000000000000     -3.216809000000000
C       3.725458000000000     -0.000000000000000     -2.256487000000000
C      -0.561083000000000     -0.730486000000000      4.322197000000000
C      -0.561083000000000      0.730487000000000      4.322197000000000
Cl     -4.591871000000000     -3.798749000000000     -0.697275000000000
Cl     -4.130690000000000     -1.953426000000000     -3.858613000000000
Cl     -4.130690000000000      1.953425000000000     -3.858613000000000
Cl     -4.591871000000000      3.798749000000000     -0.697276000000000
Cl     -5.204601000000000     -1.895932000000000      2.501229000000000
Cl     -5.204601000000000      1.895933000000000      2.501229000000000
Cl      5.709858000000000     -1.949560000000000     -2.070723000000000
Cl      4.957065000000000     -3.974776000000000      1.039828000000000
Cl      4.957065000000000      3.974776000000000      1.039827000000000
Cl      5.709858000000000      1.949559000000000     -2.070723000000000
