96

C       0.639821000000000     -0.028778000000000      3.851679000000000
C       4.508012000000000      0.454262000000000      1.290386000000000
C      -2.099857000000000      0.159252000000000     -3.632302000000000
C       2.375971000000000      0.540348000000000     -3.918656000000000
C       0.924736000000000     -1.392993000000000      3.652546000000000
C       3.582889000000000      1.323702000000000      2.107469000000000
C      -1.766811000000000     -1.211416000000000     -3.719575000000000
C       1.286838000000000      1.467087000000000     -4.125103000000000
C       2.140476000000000     -1.833662000000000      3.026165000000000
C       3.050147000000000      2.482996000000000      1.618189000000000
C       1.211826000000000      2.609786000000000     -3.363951000000000
C      -0.442724000000000     -1.656727000000000     -4.060197000000000
C       3.095136000000000     -0.835840000000000      2.768443000000000
C       0.452580000000000     -0.650672000000000     -4.462108000000000
C       2.818070000000000      0.549365000000000      3.012389000000000
C       0.093096000000000      0.735732000000000     -4.418391000000000
C       1.547353000000000      0.990897000000000      3.469886000000000
C      -1.153863000000000      1.175829000000000     -3.903481000000000
C       1.035505000000000      2.253108000000000      2.989185000000000
C      -1.209593000000000      2.409671000000000     -3.134239000000000
C      -0.448233000000000      2.552666000000000      3.073912000000000
C      -2.390524000000000      2.681161000000000     -2.219145000000000
C      -1.302189000000000      1.316164000000000      3.255948000000000
C      -3.179417000000000      1.440277000000000     -1.858631000000000
C      -0.792048000000000      0.165275000000000      3.698012000000000
C      -3.084982000000000      0.318923000000000     -2.574089000000000
C      -1.484330000000000     -1.165613000000000      3.479893000000000
C      -3.487599000000000     -1.032179000000000     -2.018353000000000
C      -0.304888000000000     -2.107413000000000      3.454312000000000
C      -2.580524000000000     -1.950876000000000     -2.799274000000000
C      -0.309337000000000     -3.242362000000000      2.728946000000000
C      -2.130745000000000     -3.115475000000000     -2.290196000000000
C       0.909919000000000     -3.747346000000000      2.149339000000000
C      -0.833334000000000     -3.619177000000000     -2.657950000000000
C       2.132114000000000     -3.018032000000000      2.203360000000000
C       0.067225000000000     -2.881344000000000     -3.466889000000000
C       3.068804000000000     -3.126649000000000      1.090529000000000
C       1.503654000000000     -3.024824000000000     -3.216878000000000
C       3.981928000000000     -2.020782000000000      0.826166000000000
C       4.484585000000000     -0.380034000000000     -1.023461000000000
C       3.957515000000000     -0.370288000000000     -2.354891000000000
C       2.386026000000000     -1.911173000000000     -3.521037000000000
C       4.008121000000000     -0.944226000000000      1.670575000000000
C       4.364090000000000      0.706334000000000     -0.199985000000000
C       3.341035000000000      0.777762000000000     -2.898617000000000
C       1.868501000000000     -0.764706000000000     -4.168274000000000
C       3.752300000000000      1.926717000000000     -0.713356000000000
C       3.252974000000000      1.964870000000000     -2.068846000000000
C       3.192046000000000      2.845023000000000      0.212285000000000
C       2.225950000000000      2.905888000000000     -2.375121000000000
C       2.130625000000000      3.711330000000000     -0.114909000000000
C       1.648966000000000      3.743447000000000     -1.402173000000000
C       1.797771000000000      2.979111000000000      2.099717000000000
C      -0.051273000000000      3.120964000000000     -2.916474000000000
C       1.246464000000000      3.984568000000000      1.089387000000000
C       0.201954000000000      4.062095000000000     -1.737026000000000
C      -0.975461000000000      3.067547000000000      1.750450000000000
C      -1.928428000000000      3.128470000000000     -0.847673000000000
C      -2.178242000000000      2.435932000000000      1.433850000000000
C      -2.651033000000000      2.465610000000000      0.143761000000000
C      -2.534908000000000      1.328179000000000      2.385507000000000
C      -3.555593000000000      1.394497000000000     -0.398207000000000
C      -2.709822000000000      0.013488000000000      1.593194000000000
C      -3.196184000000000      0.045345000000000      0.262827000000000
C      -2.211414000000000     -1.191598000000000      2.124982000000000
C      -3.173982000000000     -1.127459000000000     -0.516074000000000
C      -2.208524000000000     -2.373660000000000      1.348751000000000
C      -2.689882000000000     -2.340987000000000      0.024551000000000
C      -1.511096000000000     -3.641522000000000      1.890849000000000
C      -2.519746000000000     -3.570449000000000     -0.894754000000000
C      -0.848136000000000     -4.422812000000000      0.776298000000000
C      -1.310692000000000     -4.389323000000000     -0.499358000000000
C       0.567635000000000     -4.536500000000000      1.024574000000000
C      -0.380811000000000     -4.460896000000000     -1.598963000000000
C       1.481536000000000     -4.662219000000000     -0.026050000000000
C       0.982548000000000     -4.620940000000000     -1.382921000000000
C       2.737338000000000     -3.997861000000000      0.023853000000000
C       1.921303000000000     -3.916550000000000     -2.197808000000000
C       4.617859000000000     -1.828393000000000     -0.542887000000000
C       3.535576000000000     -1.692255000000000     -2.703434000000000
C       3.068725000000000     -3.631077000000000     -1.356942000000000
C       3.865826000000000     -2.561662000000000     -1.627150000000000
C      -0.206244000000000      3.691283000000000      0.762522000000000
C      -0.694857000000000      3.724159000000000     -0.563750000000000
Cl     -2.657952000000000     -1.536714000000000      4.844653000000000
Cl     -2.722141000000000     -4.667089000000000      2.820838000000000
Cl     -4.061804000000000     -4.576235000000000     -0.874259000000000
Cl     -5.269919000000000     -1.368134000000000     -2.321858000000000
Cl     -4.069760000000000      1.687436000000000      3.342542000000000
Cl     -5.339538000000000      1.768684000000000     -0.114542000000000
Cl      6.397118000000000     -2.358814000000000     -0.509393000000000
Cl      6.270614000000000      0.700657000000000      1.824072000000000
Cl      1.424573000000000      5.715241000000000      1.701076000000000
Cl     -0.763919000000000      3.787094000000000      4.434959000000000
Cl     -0.019585000000000      5.827574000000000     -2.223982000000000
Cl     -3.490995000000000      3.967229000000000     -2.997684000000000
