96

C      -1.153854000000000     -0.701929000000000     -3.969782000000000
C       3.319534000000000      0.098871000000000     -2.882745000000000
C      -1.153854000000000     -0.701930000000000      3.969782000000000
C       3.319533000000000      0.098871000000000      2.882746000000000
C      -1.205798000000000      0.721101000000000     -3.926924000000000
C       2.475432000000000     -1.074540000000000     -3.319548000000000
C      -1.205798000000000      0.721101000000000      3.926924000000000
C       2.475432000000000     -1.074540000000000      3.319548000000000
C      -0.026053000000000      1.503335000000000     -3.760453000000000
C       2.514254000000000     -2.273486000000000     -2.685257000000000
C       2.514254000000000     -2.273486000000000      2.685257000000000
C      -0.026053000000000      1.503334000000000      3.760453000000000
C       1.203871000000000      0.803442000000000     -3.814103000000000
C       1.203871000000000      0.803441000000000      3.814103000000000
C       1.259624000000000     -0.613599000000000     -3.919635000000000
C       1.259624000000000     -0.613600000000000      3.919635000000000
C       0.077047000000000     -1.405482000000000     -3.908291000000000
C       0.077047000000000     -1.405482000000000      3.908291000000000
C       0.111504000000000     -2.677326000000000     -3.223175000000000
C       0.111504000000000     -2.677327000000000      3.223174000000000
C      -1.089791000000000     -3.148901000000000     -2.623633000000000
C      -1.089791000000000     -3.148901000000000      2.623633000000000
C      -2.309191000000000     -2.398922000000000     -2.698212000000000
C      -2.309191000000000     -2.398923000000000      2.698212000000000
C      -2.345268000000000     -1.219920000000000     -3.363430000000000
C      -2.345268000000000     -1.219920000000000      3.363430000000000
C      -3.265190000000000     -0.094159000000000     -2.941817000000000
C      -3.265190000000000     -0.094159000000000      2.941817000000000
C      -2.446474000000000      1.114218000000000     -3.339754000000000
C      -2.446474000000000      1.114218000000000      3.339754000000000
C      -2.528882000000000      2.287449000000000     -2.672944000000000
C      -2.528882000000000      2.287448000000000      2.672944000000000
C      -1.379211000000000      3.137823000000000     -2.557237000000000
C      -1.379211000000000      3.137823000000000      2.557237000000000
C      -0.090403000000000      2.734521000000000     -3.014199000000000
C      -0.090403000000000      2.734521000000000      3.014199000000000
C       1.086718000000000      3.193944000000000     -2.289393000000000
C       1.086718000000000      3.193944000000000      2.289393000000000
C       2.308361000000000      2.399617000000000     -2.326725000000000
C       3.751835000000000      1.176823000000000     -0.696153000000000
C       3.751835000000000      1.176823000000000      0.696154000000000
C       2.308361000000000      2.399617000000000      2.326725000000000
C       2.353403000000000      1.270613000000000     -3.099178000000000
C       3.686505000000000     -0.014946000000000     -1.411962000000000
C       3.686505000000000     -0.014946000000000      1.411962000000000
C       2.353403000000000      1.270613000000000      3.099178000000000
C       3.665133000000000     -1.238600000000000     -0.709530000000000
C       3.665133000000000     -1.238600000000000      0.709530000000000
C       3.407463000000000     -2.536411000000000     -1.485190000000000
C       3.407463000000000     -2.536411000000000      1.485190000000000
C       2.545262000000000     -3.485710000000000     -0.678220000000000
C       2.545262000000000     -3.485710000000000      0.678219000000000
C       1.332614000000000     -3.087969000000000     -2.619210000000000
C       1.332614000000000     -3.087969000000000      2.619210000000000
C       1.349224000000000     -3.818181000000000     -1.399071000000000
C       1.349224000000000     -3.818181000000000      1.399071000000000
C      -1.073134000000000     -3.869522000000000     -1.396818000000000
C      -1.073134000000000     -3.869522000000000      1.396817000000000
C      -2.278140000000000     -3.574688000000000     -0.677044000000000
C      -2.278140000000000     -3.574689000000000      0.677044000000000
C      -3.169303000000000     -2.646147000000000     -1.475360000000000
C      -3.169303000000000     -2.646147000000000      1.475360000000000
C      -3.410737000000000     -1.327455000000000     -0.706841000000000
C      -3.410737000000000     -1.327455000000000      0.706841000000000
C      -3.471350000000000     -0.105145000000000     -1.410452000000000
C      -3.471350000000000     -0.105145000000000      1.410452000000000
C      -3.547500000000000      1.119446000000000     -0.705743000000000
C      -3.547500000000000      1.119446000000000      0.705743000000000
C      -3.452718000000000      2.456178000000000     -1.480242000000000
C      -3.452718000000000      2.456178000000000      1.480242000000000
C      -2.714135000000000      3.505909000000000     -0.677898000000000
C      -2.714135000000000      3.505909000000000      0.677898000000000
C      -1.539322000000000      3.939862000000000     -1.396492000000000
C      -1.539322000000000      3.939862000000000      1.396492000000000
C      -0.405473000000000      4.392910000000000     -0.724272000000000
C      -0.405474000000000      4.392909000000000      0.724272000000000
C       0.894147000000000      4.049734000000000     -1.186428000000000
C       0.894147000000000      4.049734000000000      1.186429000000000
C       3.375381000000000      2.542748000000000     -1.249655000000000
C       3.375381000000000      2.542748000000000      1.249655000000000
C       1.750774000000000      3.934282000000000      0.000000000000000
C       2.884742000000000      3.215970000000000      0.000000000000000
C       0.144413000000000     -4.160943000000000     -0.722303000000000
C       0.144413000000000     -4.160943000000000      0.722302000000000
Cl     -4.886975000000000     -0.172490000000000     -3.801880000000000
Cl     -5.142119000000000      3.014691000000000     -1.952347000000000
Cl     -5.142119000000000      3.014691000000000      1.952348000000000
Cl     -4.886976000000000     -0.172490000000000      3.801879000000000
Cl     -4.782100000000000     -3.424039000000000     -1.897482000000000
Cl     -4.782100000000000     -3.424039000000000      1.897482000000000
Cl      5.014307000000000     -3.296029000000000     -1.973621000000000
Cl      5.014307000000000     -3.296030000000000      1.973621000000000
Cl      4.830589000000000      0.263183000000000     -3.922281000000000
Cl      4.868337000000000      3.420680000000000     -1.948026000000000
Cl      4.830589000000000      0.263182000000000      3.922281000000000
Cl      4.868338000000000      3.420679000000000      1.948027000000000
