96

C      -0.939641000000000      4.041453000000000     -0.865550000000000
C       3.453544000000000      2.678671000000000      0.484283000000000
C      -0.960773000000000     -4.170601000000000     -0.584701000000000
C       3.393152000000000     -3.079517000000000      0.651893000000000
C      -1.090869000000000      3.759181000000000      0.608444000000000
C       2.740034000000000      3.074237000000000     -0.784622000000000
C      -1.164466000000000     -4.089068000000000      0.829915000000000
C       2.689082000000000     -3.564216000000000     -0.593138000000000
C      -0.002843000000000      3.592751000000000      1.510137000000000
C       2.913807000000000      2.406505000000000     -1.958937000000000
C       2.859660000000000     -2.959520000000000     -1.802141000000000
C      -0.079513000000000     -3.910577000000000      1.732800000000000
C       1.295806000000000      3.633248000000000      0.947769000000000
C       1.222484000000000     -3.986821000000000      1.164410000000000
C       1.489734000000000      3.693660000000000     -0.492016000000000
C       1.428828000000000     -4.133647000000000     -0.248153000000000
C       0.428470000000000      3.697015000000000     -1.392509000000000
C       0.337830000000000     -4.139188000000000     -1.158975000000000
C       0.579707000000000      2.962286000000000     -2.612927000000000
C       0.513831000000000     -3.492762000000000     -2.438535000000000
C      -0.569382000000000      2.362471000000000     -3.204547000000000
C      -0.626796000000000     -2.894052000000000     -3.050198000000000
C      -1.851737000000000      2.452513000000000     -2.544882000000000
C      -1.912755000000000     -2.940179000000000     -2.428932000000000
C      -2.031986000000000      3.176234000000000     -1.432595000000000
C      -2.080091000000000     -3.575587000000000     -1.240073000000000
C      -3.042762000000000      2.764795000000000     -0.394110000000000
C      -3.113468000000000     -3.119691000000000     -0.231215000000000
C      -2.324519000000000      3.168966000000000      0.863844000000000
C      -2.433913000000000     -3.491078000000000      1.068476000000000
C      -2.555978000000000      2.533367000000000      2.062901000000000
C      -2.642346000000000     -2.794950000000000      2.212379000000000
C      -1.529581000000000      2.434321000000000      3.015109000000000
C      -1.599349000000000     -2.665719000000000      3.179959000000000
C      -0.197646000000000      2.868269000000000      2.739473000000000
C      -0.276412000000000     -3.140412000000000      2.936805000000000
C       0.913221000000000      2.152193000000000      3.349195000000000
C       0.844712000000000     -2.401685000000000      3.508793000000000
C       2.180987000000000      2.169182000000000      2.688716000000000
C       3.782408000000000      0.535864000000000      1.653406000000000
C       3.714405000000000     -0.864165000000000      1.682888000000000
C       2.137861000000000     -2.445844000000000      2.828097000000000
C       2.355753000000000      2.924768000000000      1.531462000000000
C       3.845423000000000      1.210760000000000      0.448804000000000
C       3.786437000000000     -1.620768000000000      0.519246000000000
C       2.307350000000000     -3.271928000000000      1.718026000000000
C       3.935513000000000      0.461685000000000     -0.760543000000000
C       3.917678000000000     -0.952770000000000     -0.720751000000000
C       3.824488000000000      1.198991000000000     -2.096412000000000
C       3.791429000000000     -1.772868000000000     -2.009544000000000
C       3.055781000000000      0.369567000000000     -3.107812000000000
C       3.042199000000000     -0.990826000000000     -3.069591000000000
C       1.826430000000000      2.327180000000000     -2.875372000000000
C       1.775133000000000     -2.910942000000000     -2.734103000000000
C       1.909504000000000      1.082684000000000     -3.578106000000000
C       1.880181000000000     -1.704930000000000     -3.494976000000000
C      -0.492041000000000      1.115795000000000     -3.863327000000000
C      -0.522209000000000     -1.688450000000000     -3.799571000000000
C      -1.724653000000000      0.404538000000000     -3.671563000000000
C      -1.740595000000000     -0.948265000000000     -3.644888000000000
C      -2.692950000000000      1.228643000000000     -2.853768000000000
C      -2.730985000000000     -1.717517000000000     -2.793661000000000
C      -3.084989000000000      0.493977000000000     -1.560811000000000
C      -3.100442000000000     -0.917356000000000     -1.526138000000000
C      -3.268571000000000      1.235538000000000     -0.376185000000000
C      -3.298906000000000     -1.589176000000000     -0.301022000000000
C      -3.482828000000000      0.562392000000000      0.852268000000000
C      -3.498077000000000     -0.850414000000000      0.890088000000000
C      -3.524533000000000      1.370446000000000      2.167073000000000
C      -3.569165000000000     -1.592588000000000      2.246345000000000
C      -2.922897000000000      0.588782000000000      3.316125000000000
C      -2.945332000000000     -0.773089000000000      3.354993000000000
C      -1.798009000000000      1.291715000000000      3.852293000000000
C      -1.841491000000000     -1.479260000000000      3.939169000000000
C      -0.746069000000000      0.635185000000000      4.468476000000000
C      -0.770772000000000     -0.802270000000000      4.515961000000000
C       0.613028000000000      1.073271000000000      4.265845000000000
C       0.569221000000000     -1.271253000000000      4.315745000000000
C       3.224180000000000      1.101777000000000      2.959810000000000
C       2.978106000000000     -1.281030000000000      2.881220000000000
C       1.421886000000000     -0.095859000000000      4.284527000000000
C       2.628713000000000     -0.143342000000000      3.581629000000000
C       0.744188000000000      0.412970000000000     -4.025352000000000
C       0.725261000000000     -1.029684000000000     -3.983297000000000
Cl     -4.660273000000000      3.628841000000000     -0.605699000000000
Cl     -5.252056000000000      1.884344000000000      2.533315000000000
Cl     -5.313900000000000     -2.035882000000000      2.619993000000000
Cl     -4.722287000000000     -3.974933000000000     -0.463913000000000
Cl     -4.204658000000000      1.657630000000000     -3.810392000000000
Cl     -4.254451000000000     -2.151970000000000     -3.725679000000000
Cl      5.501631000000000      1.659147000000000     -2.707137000000000
Cl      5.458023000000000     -2.308477000000000     -2.578582000000000
Cl      4.930521000000000      3.736375000000000      0.794506000000000
Cl      4.576498000000000      1.783843000000000      4.033534000000000
Cl      4.880657000000000     -4.111508000000000      1.046517000000000
Cl     -1.279152000000000      5.885300000000000     -1.203494000000000
