96

C       0.788729000000000     -1.549957000000000      3.779116000000000
C      -3.620315000000000     -0.739628000000000      2.450805000000000
C       1.465935000000000      0.006727000000000     -3.999000000000000
C      -2.952626000000000      0.371335000000000     -3.046137000000000
C       0.758760000000000     -0.145085000000000      4.014366000000000
C      -2.743695000000000     -1.938185000000000      2.727869000000000
C       1.421702000000000      1.401514000000000     -3.671927000000000
C      -2.176487000000000     -0.613900000000000     -3.753246000000000
C      -0.448055000000000      0.603420000000000      3.890592000000000
C      -2.658392000000000     -2.990204000000000      1.874195000000000
C      -2.185270000000000     -1.928262000000000     -3.362237000000000
C       0.182305000000000      2.079362000000000     -3.474319000000000
C      -1.634233000000000     -0.144689000000000      3.692614000000000
C      -0.980960000000000      1.350936000000000     -3.801455000000000
C      -1.614165000000000     -1.556006000000000      3.520346000000000
C      -0.937184000000000     -0.012425000000000     -4.201599000000000
C      -0.388589000000000     -2.277874000000000      3.467000000000000
C       0.278187000000000     -0.745769000000000     -4.212719000000000
C      -0.288683000000000     -3.388969000000000      2.549439000000000
C       0.263328000000000     -2.126648000000000     -3.773929000000000
C       0.984383000000000     -3.678785000000000      1.983779000000000
C       1.429216000000000     -2.648309000000000     -3.155481000000000
C       2.147073000000000     -2.911426000000000      2.317005000000000
C       2.604530000000000     -1.852525000000000     -2.963888000000000
C       2.054473000000000     -1.885483000000000      3.196641000000000
C       2.622906000000000     -0.562221000000000     -3.384678000000000
C       2.938426000000000     -0.661054000000000      3.087768000000000
C       3.424310000000000      0.500775000000000     -2.661784000000000
C       2.020630000000000      0.407937000000000      3.637757000000000
C       2.565249000000000      1.722955000000000     -2.897833000000000
C       2.086997000000000      1.691622000000000      3.220102000000000
C       2.511250000000000      2.753810000000000     -2.011810000000000
C       0.900942000000000      2.495243000000000      3.159421000000000
C       1.307542000000000      3.500460000000000     -1.852430000000000
C      -0.394159000000000      1.957214000000000      3.400214000000000
C       0.102436000000000      3.132473000000000     -2.488621000000000
C      -1.530036000000000      2.498688000000000      2.664735000000000
C      -1.168795000000000      3.367073000000000     -1.799858000000000
C      -2.699590000000000      1.664183000000000      2.441895000000000
C      -3.927661000000000      0.731201000000000      0.483707000000000
C      -3.809397000000000      1.011182000000000     -0.869994000000000
C      -2.274446000000000      2.578038000000000     -2.065853000000000
C      -2.746601000000000      0.404877000000000      2.977846000000000
C      -3.859607000000000     -0.576989000000000      0.964062000000000
C      -3.609000000000000     -0.011613000000000     -1.811173000000000
C      -2.213652000000000      1.572434000000000     -3.080147000000000
C      -3.706339000000000     -1.635035000000000      0.036461000000000
C      -3.591485000000000     -1.359751000000000     -1.345637000000000
C      -3.430942000000000     -3.048860000000000      0.567701000000000
C      -3.167648000000000     -2.454786000000000     -2.325761000000000
C      -2.444693000000000     -3.784185000000000     -0.321251000000000
C      -2.331636000000000     -3.515968000000000     -1.646190000000000
C      -1.427656000000000     -3.721571000000000      1.763195000000000
C      -0.982804000000000     -2.693210000000000     -3.363971000000000
C      -1.298190000000000     -4.203549000000000      0.430749000000000
C      -1.060130000000000     -3.639221000000000     -2.298106000000000
C       1.114094000000000     -4.149062000000000      0.645235000000000
C       1.346458000000000     -3.586492000000000     -2.081578000000000
C       2.349156000000000     -3.661371000000000      0.111173000000000
C       2.467675000000000     -3.396025000000000     -1.213760000000000
C       3.117035000000000     -2.873408000000000      1.153568000000000
C       3.365622000000000     -2.292372000000000     -1.730449000000000
C       3.336584000000000     -1.420054000000000      0.678187000000000
C       3.452563000000000     -1.141275000000000     -0.703022000000000
C       3.264294000000000     -0.359508000000000      1.607078000000000
C       3.492835000000000      0.197455000000000     -1.149976000000000
C       3.321324000000000      0.982046000000000      1.160691000000000
C       3.432315000000000      1.261943000000000     -0.219212000000000
C       3.091956000000000      2.132349000000000      2.169364000000000
C       3.317879000000000      2.720218000000000     -0.728219000000000
C       2.352193000000000      3.283271000000000      1.520180000000000
C       2.448888000000000      3.549620000000000      0.188593000000000
C       1.110735000000000      3.508365000000000      2.187537000000000
C       1.316516000000000      4.072954000000000     -0.520647000000000
C       0.009379000000000      4.038673000000000      1.496474000000000
C       0.140020000000000      4.370485000000000      0.120544000000000
C      -1.304435000000000      3.562575000000000      1.766883000000000
C      -1.197997000000000      4.272644000000000     -0.571344000000000
C      -3.679368000000000      1.974866000000000      1.321163000000000
C      -3.459880000000000      2.467262000000000     -1.116844000000000
C      -2.071789000000000      3.686664000000000      0.534437000000000
C      -3.132115000000000      2.915931000000000      0.279011000000000
C      -0.022718000000000     -4.353564000000000     -0.182910000000000
C       0.099429000000000     -4.066276000000000     -1.593221000000000
Cl      4.488156000000000     -0.842818000000000      4.056206000000000
Cl      4.698487000000000      2.661779000000000      2.884791000000000
Cl      5.004742000000000      3.437343000000000     -0.906632000000000
Cl      5.117841000000000      0.673379000000000     -3.351419000000000
Cl      4.730885000000000     -3.653936000000000      1.556980000000000
Cl      5.057437000000000     -2.898524000000000     -2.124955000000000
Cl     -5.015066000000000     -3.972153000000000      0.743964000000000
Cl     -4.655750000000000     -3.177141000000000     -3.160248000000000
Cl     -5.209751000000000     -0.855122000000000      3.387626000000000
Cl     -5.265848000000000      2.642126000000000      2.035690000000000
Cl     -1.796751000000000      5.957016000000000     -1.078410000000000
Cl     -4.907853000000000      3.381266000000000     -1.850871000000000
