98

C       1.420115000000000      1.161827000000000      3.921562000000000
C      -3.185141000000000      1.102344000000000      2.610713000000000
C       1.043429000000000     -2.612861000000000     -3.376884000000000
C      -3.423659000000000     -1.565446000000000     -2.500201000000000
C       1.305425000000000      2.316291000000000      2.952606000000000
C      -2.261599000000000      0.290752000000000      3.486259000000000
C       1.008324000000000     -1.335238000000000     -4.002920000000000
C      -2.527789000000000     -2.777584000000000     -2.401596000000000
C       0.074807000000000      2.870795000000000      2.508614000000000
C      -2.261591000000000     -1.070559000000000      3.477656000000000
C      -2.467293000000000     -3.546853000000000     -1.284760000000000
C      -0.211506000000000     -0.608399000000000     -4.140495000000000
C      -1.106616000000000      2.239866000000000      2.962243000000000
C      -1.396162000000000     -1.297452000000000     -3.786664000000000
C      -1.053189000000000      1.000867000000000      3.738020000000000
C      -1.367633000000000     -2.602952000000000     -3.221206000000000
C       0.142777000000000      0.361563000000000      4.032969000000000
C      -0.138039000000000     -3.253007000000000     -2.918800000000000
C       0.169483000000000     -1.071191000000000      3.994658000000000
C      -0.067789000000000     -4.060279000000000     -1.722955000000000
C       1.376022000000000     -1.723554000000000      3.608919000000000
C       1.183775000000000     -4.149790000000000     -1.045289000000000
C       2.536059000000000     -0.944040000000000      3.220652000000000
C       2.350288000000000     -3.473219000000000     -1.537060000000000
C       2.558109000000000      0.389372000000000      3.303174000000000
C       2.288135000000000     -2.743107000000000     -2.674801000000000
C       3.353822000000000      1.217854000000000      2.326268000000000
C       3.151751000000000     -1.516763000000000     -2.884154000000000
C       2.441496000000000      2.402872000000000      2.165766000000000
C       2.244669000000000     -0.667452000000000     -3.746711000000000
C       2.433001000000000      3.163784000000000      1.008449000000000
C       2.281091000000000      0.683182000000000     -3.709187000000000
C       1.268932000000000      3.815027000000000      0.602160000000000
C       1.083696000000000      1.444473000000000     -3.921610000000000
C       0.022293000000000      3.600799000000000      1.270693000000000
C      -0.193368000000000      0.829073000000000     -4.049262000000000
C      -1.200089000000000      3.626912000000000      0.510518000000000
C      -1.364187000000000      1.529302000000000     -3.535837000000000
C      -2.324877000000000      2.926057000000000      0.964844000000000
C      -3.751702000000000      1.035128000000000      0.199515000000000
C      -3.815979000000000      0.388342000000000     -1.030860000000000
C      -2.532670000000000      0.764961000000000     -3.130442000000000
C      -2.276180000000000      2.268962000000000      2.210115000000000
C      -3.588035000000000      0.311660000000000      1.378801000000000
C      -3.714250000000000     -0.996324000000000     -1.120921000000000
C      -2.541574000000000     -0.594499000000000     -3.294905000000000
C      -3.531647000000000     -1.098490000000000      1.318075000000000
C      -3.591704000000000     -1.754363000000000      0.062438000000000
C      -3.183716000000000     -1.886057000000000      2.588094000000000
C      -3.295487000000000     -3.256552000000000     -0.044639000000000
C      -2.298353000000000     -3.071303000000000      2.257497000000000
C      -2.347339000000000     -3.696454000000000      1.053493000000000
C      -1.041355000000000     -1.765535000000000      3.717129000000000
C      -1.235559000000000     -4.191321000000000     -0.925122000000000
C      -1.056199000000000     -2.984168000000000      2.968206000000000
C      -1.160984000000000     -4.274572000000000      0.495289000000000
C       1.358959000000000     -2.905778000000000      2.846390000000000
C       1.257626000000000     -4.219301000000000      0.369394000000000
C       2.515193000000000     -2.932062000000000      1.987376000000000
C       2.466746000000000     -3.566585000000000      0.796610000000000
C       3.365752000000000     -1.701600000000000      2.201924000000000
C       3.268474000000000     -3.086463000000000     -0.396099000000000
C       3.503136000000000     -0.894132000000000      0.899740000000000
C       3.454120000000000     -1.553871000000000     -0.347499000000000
C       3.510467000000000      0.514195000000000      0.959033000000000
C       3.411465000000000     -0.801054000000000     -1.539506000000000
C       3.479862000000000      1.272200000000000     -0.237890000000000
C       3.432560000000000      0.612714000000000     -1.487225000000000
C       3.322575000000000      2.808234000000000     -0.168177000000000
C       3.235328000000000      1.425435000000000     -2.789282000000000
C       2.497203000000000      3.332516000000000     -1.322825000000000
C       2.457553000000000      2.697517000000000     -2.524281000000000
C       1.328683000000000      4.008687000000000     -0.834958000000000
C       1.240594000000000      2.698344000000000     -3.275214000000000
C       0.175012000000000      4.086279000000000     -1.569488000000000
C       0.105710000000000      3.374278000000000     -2.801209000000000
C      -1.190269000000000      4.153337000000000     -0.922843000000000
C      -1.187913000000000      2.806929000000000     -2.967210000000000
C      -3.460197000000000      2.520493000000000      0.033110000000000
C      -3.556887000000000      1.353094000000000     -2.173993000000000
C      -2.002589000000000      3.248715000000000     -1.841583000000000
C      -3.062383000000000      2.556201000000000     -1.416777000000000
C       0.136698000000000     -3.545757000000000      2.456925000000000
C       0.087156000000000     -4.213908000000000      1.177811000000000
Cl      5.013889000000000      1.677739000000000      2.986440000000000
Cl      4.978110000000000      3.604918000000000     -0.100255000000000
Cl      4.866376000000000      1.769292000000000     -3.560795000000000
Cl      4.741394000000000     -1.925076000000000     -3.707614000000000
Cl      5.033220000000000     -2.119539000000000      2.856728000000000
Cl      4.908728000000000     -3.909843000000000     -0.504520000000000
Cl     -4.729545000000000     -2.379966000000000      3.454623000000000
Cl     -4.874097000000000     -4.202535000000000     -0.027876000000000
Cl     -4.673756000000000      1.667058000000000      3.534553000000000
Cl     -4.958178000000000      3.548446000000000      0.376073000000000
Cl     -4.986275000000000     -1.951812000000000     -3.391841000000000
Cl     -5.130957000000000      1.755064000000000     -3.088726000000000
Cl     -1.847916000000000      5.888332000000000     -0.938965000000000
Cl      1.879638000000000      1.800978000000000      5.634396000000000
