100

C      -1.496972000000000     -2.192181000000000     -3.364002000000000
C       2.724797000000000      0.023815000000000     -3.536696000000000
C      -0.403938000000000      1.464317000000000      3.905168000000000
C       3.483759000000000      2.565146000000000      1.563568000000000
C      -1.856263000000000     -0.748476000000000     -3.657908000000000
C       2.189579000000000     -1.357123000000000     -3.253176000000000
C      -0.850615000000000      2.660130000000000      3.316321000000000
C       3.036328000000000      1.554249000000000      2.590538000000000
C      -0.944871000000000      0.240120000000000     -4.093702000000000
C       2.631363000000000     -2.117620000000000     -2.198623000000000
C       3.300576000000000      0.218080000000000      2.483821000000000
C       0.029258000000000      3.523577000000000      2.573817000000000
C       0.428102000000000     -0.150567000000000     -4.165683000000000
C       1.388912000000000      3.180126000000000      2.600083000000000
C       0.857078000000000     -1.467115000000000     -3.674248000000000
C       1.848789000000000      1.976617000000000      3.228870000000000
C      -0.023692000000000     -2.380458000000000     -3.090112000000000
C       0.950220000000000      1.045499000000000      3.810044000000000
C       0.437110000000000     -3.173448000000000     -2.017033000000000
C       1.257858000000000     -0.352075000000000      3.713975000000000
C      -0.544982000000000     -3.848664000000000     -1.086002000000000
C       0.170082000000000     -1.383868000000000      3.921490000000000
C      -1.901942000000000     -3.174098000000000     -1.111507000000000
C      -1.224930000000000     -0.821372000000000      3.744635000000000
C      -2.332759000000000     -2.449163000000000     -2.133336000000000
C      -1.474776000000000      0.487136000000000      3.829981000000000
C      -3.448520000000000     -1.440555000000000     -1.980434000000000
C      -2.720822000000000      1.117955000000000      3.239518000000000
C      -3.024192000000000     -0.399550000000000     -2.978356000000000
C      -2.226491000000000      2.512156000000000      2.933992000000000
C      -3.371321000000000      0.921010000000000     -2.833660000000000
C      -2.717587000000000      3.238981000000000      1.911517000000000
C      -2.530725000000000      1.929840000000000     -3.337876000000000
C      -1.878177000000000      4.168713000000000      1.199315000000000
C      -1.254291000000000      1.633132000000000     -3.904296000000000
C      -0.478926000000000      4.264293000000000      1.445395000000000
C      -0.176286000000000      2.599751000000000     -3.730215000000000
C       0.412642000000000      4.585204000000000      0.336135000000000
C       1.192201000000000      2.127335000000000     -3.717663000000000
C       3.118764000000000      2.005245000000000     -2.124918000000000
C       3.346278000000000      2.635375000000000     -0.894276000000000
C       1.798387000000000      4.133429000000000      0.394242000000000
C       1.453720000000000      0.752603000000000     -3.991128000000000
C       3.303513000000000      0.634419000000000     -2.277226000000000
C       3.701969000000000      1.894431000000000      0.220213000000000
C       2.262474000000000      3.498416000000000      1.514624000000000
C       3.725323000000000     -0.129130000000000     -1.164512000000000
C       3.913898000000000      0.495996000000000      0.086367000000000
C       3.724871000000000     -1.657241000000000     -1.266150000000000
C       4.095761000000000     -0.359026000000000      1.340933000000000
C       3.288143000000000     -2.312048000000000      0.025779000000000
C       3.453339000000000     -1.722593000000000      1.204194000000000
C       1.760565000000000     -3.035739000000000     -1.588866000000000
C       2.416046000000000     -0.732044000000000      3.056162000000000
C       2.271007000000000     -3.408432000000000     -0.212090000000000
C       2.646283000000000     -2.094839000000000      2.429871000000000
C      -0.146851000000000     -3.628478000000000      0.357483000000000
C       0.204070000000000     -2.421485000000000      2.821823000000000
C      -1.255883000000000     -3.243027000000000      1.109124000000000
C      -1.082773000000000     -2.647132000000000      2.335085000000000
C      -2.479967000000000     -2.999983000000000      0.274770000000000
C      -2.111902000000000     -1.720201000000000      2.919393000000000
C      -2.996600000000000     -1.570862000000000      0.516245000000000
C      -2.820296000000000     -0.955971000000000      1.778938000000000
C      -3.475969000000000     -0.819034000000000     -0.572024000000000
C      -3.125960000000000      0.409037000000000      1.936394000000000
C      -3.801653000000000      0.549395000000000     -0.407029000000000
C      -3.625144000000000      1.163865000000000      0.849963000000000
C      -4.173817000000000      1.400716000000000     -1.638646000000000
C      -3.805162000000000      2.692182000000000      1.003260000000000
C      -3.673966000000000      2.823829000000000     -1.502354000000000
C      -3.498053000000000      3.414486000000000     -0.291139000000000
C      -2.768742000000000      3.130195000000000     -2.576279000000000
C      -2.414393000000000      4.342931000000000     -0.100246000000000
C      -1.753960000000000      4.054978000000000     -2.432832000000000
C      -1.560441000000000      4.691007000000000     -1.153515000000000
C      -0.459504000000000      3.803704000000000     -3.020199000000000
C      -0.162641000000000      4.848546000000000     -0.932013000000000
C       2.135836000000000      2.785907000000000     -2.890490000000000
C       2.639390000000000      3.991158000000000     -0.864423000000000
C       0.508960000000000      4.399173000000000     -2.155804000000000
C       1.795027000000000      3.899804000000000     -2.117166000000000
C       1.152788000000000     -3.364979000000000      0.805890000000000
C       1.331020000000000     -2.747758000000000      2.059087000000000
Cl     -5.083174000000000     -2.187992000000000     -2.377334000000000
Cl     -5.990048000000000      1.339650000000000     -1.917554000000000
Cl     -5.500570000000000      3.061341000000000      1.606363000000000
Cl     -4.109984000000000      1.103658000000000      4.439469000000000
Cl     -3.819141000000000     -4.217271000000000      0.612627000000000
Cl     -3.364674000000000     -2.613081000000000      3.935304000000000
Cl      5.389291000000000     -2.237948000000000     -1.804800000000000
Cl      5.892525000000000     -0.492215000000000      1.750581000000000
Cl      3.996891000000000      0.018815000000000     -4.877406000000000
Cl      4.992532000000000      3.466232000000000      2.106768000000000
Cl     -2.010680000000000     -3.288726000000000     -4.777507000000000
Cl      3.842053000000000      5.392726000000000     -0.988206000000000
Cl     -0.676171000000000     -5.647229000000000     -1.483577000000000
Cl      3.064872000000000     -5.078136000000000     -0.210584000000000
Cl      3.609172000000000     -3.193010000000000      3.560729000000000
Cl      0.363812000000000     -2.177990000000000      5.595656000000000
