100

C      -1.445130000000000     -2.606868000000000     -3.077046000000000
C       2.762085000000000     -0.372848000000000     -3.339487000000000
C      -0.446392000000000      1.494844000000000      3.961098000000000
C       3.434871000000000      2.474026000000000      1.612760000000000
C      -1.811614000000000     -1.188819000000000     -3.466743000000000
C       2.235358000000000     -1.740185000000000     -2.981738000000000
C      -0.905913000000000      2.699204000000000      3.276962000000000
C       2.999946000000000      1.532029000000000      2.713635000000000
C      -0.902118000000000     -0.220909000000000     -3.947678000000000
C       2.671736000000000     -2.433644000000000     -1.879621000000000
C       3.277997000000000      0.167993000000000      2.679446000000000
C      -0.020400000000000      3.493444000000000      2.491307000000000
C       0.475299000000000     -0.602268000000000     -3.978655000000000
C       1.349011000000000      3.150987000000000      2.559287000000000
C       0.908269000000000     -1.885860000000000     -3.408579000000000
C       1.823809000000000      1.979779000000000      3.303180000000000
C       0.027086000000000     -2.767839000000000     -2.778279000000000
C       0.914957000000000      1.087525000000000      3.929907000000000
C       0.482862000000000     -3.492568000000000     -1.655214000000000
C       1.220087000000000     -0.319849000000000      3.913802000000000
C      -0.504791000000000     -4.116168000000000     -0.693682000000000
C       0.127329000000000     -1.228944000000000      3.911898000000000
C      -1.861478000000000     -3.445480000000000     -0.769460000000000
C      -1.200243000000000     -0.785075000000000      3.912415000000000
C      -2.287985000000000     -2.788106000000000     -1.838065000000000
C      -1.490125000000000      0.565141000000000      3.962139000000000
C      -3.407496000000000     -1.775207000000000     -1.755528000000000
C      -2.728547000000000      1.141861000000000      3.302177000000000
C      -2.988072000000000     -0.802836000000000     -2.821217000000000
C      -2.238307000000000      2.520077000000000      2.909024000000000
C      -3.349995000000000      0.519721000000000     -2.767790000000000
C      -2.732639000000000      3.188870000000000      1.807884000000000
C      -2.509698000000000      1.501718000000000     -3.323245000000000
C      -1.919408000000000      4.060390000000000      1.070941000000000
C      -1.223176000000000      1.178707000000000     -3.845539000000000
C      -0.509333000000000      4.154746000000000      1.311844000000000
C      -0.152355000000000      2.159142000000000     -3.708857000000000
C       0.395172000000000      4.393926000000000      0.212344000000000
C       1.216750000000000      1.703691000000000     -3.660807000000000
C       3.107833000000000      1.692636000000000     -2.038457000000000
C       3.304110000000000      2.396036000000000     -0.844721000000000
C       1.733270000000000      3.968133000000000      0.305201000000000
C       1.492720000000000      0.315865000000000     -3.852195000000000
C       3.310145000000000      0.317187000000000     -2.108116000000000
C       3.650867000000000      1.722668000000000      0.317014000000000
C       2.210480000000000      3.397127000000000      1.497812000000000
C       3.724279000000000     -0.375826000000000     -0.948592000000000
C       3.886567000000000      0.322649000000000      0.266690000000000
C       3.749562000000000     -1.907447000000000     -0.963984000000000
C       4.084347000000000     -0.456172000000000      1.566606000000000
C       3.312160000000000     -2.494888000000000      0.359513000000000
C       3.466485000000000     -1.838005000000000      1.503907000000000
C       1.802019000000000     -3.321305000000000     -1.225386000000000
C       2.425819000000000     -0.745655000000000      3.288887000000000
C       2.303803000000000     -3.612181000000000      0.174395000000000
C       2.646876000000000     -2.139225000000000      2.737628000000000
C      -0.119587000000000     -3.821702000000000      0.738267000000000
C       0.202601000000000     -2.450088000000000      3.114526000000000
C      -1.244239000000000     -3.404323000000000      1.463627000000000
C      -1.089810000000000     -2.743730000000000      2.651759000000000
C      -2.451399000000000     -3.185361000000000      0.597914000000000
C      -2.101813000000000     -1.739404000000000      3.153006000000000
C      -2.948273000000000     -1.732032000000000      0.741602000000000
C      -2.772863000000000     -1.031952000000000      1.958476000000000
C      -3.431069000000000     -1.056101000000000     -0.393077000000000
C      -3.083121000000000      0.344684000000000      2.030450000000000
C      -3.762712000000000      0.318855000000000     -0.319409000000000
C      -3.587286000000000      1.022706000000000      0.892348000000000
C      -4.156520000000000      1.073848000000000     -1.606885000000000
C      -3.804815000000000      2.555934000000000      0.938517000000000
C      -3.671358000000000      2.508629000000000     -1.571571000000000
C      -3.505410000000000      3.190823000000000     -0.402636000000000
C      -2.770159000000000      2.747440000000000     -2.648117000000000
C      -2.442996000000000      4.140363000000000     -0.278489000000000
C      -1.753451000000000      3.684726000000000     -2.526911000000000
C      -1.611264000000000      4.436723000000000     -1.334585000000000
C      -0.444143000000000      3.401844000000000     -3.071901000000000
C      -0.162397000000000      4.841754000000000     -1.140853000000000
C       2.139933000000000      2.421014000000000     -2.867022000000000
C       2.610737000000000      3.758948000000000     -0.918584000000000
C       0.508890000000000      4.088004000000000     -2.283022000000000
C       1.785722000000000      3.590943000000000     -2.176903000000000
C       1.175043000000000     -3.524744000000000      1.178497000000000
C       1.343250000000000     -2.827587000000000      2.392231000000000
Cl     -5.040866000000000     -2.551442000000000     -2.094931000000000
Cl     -5.972010000000000      0.975867000000000     -1.862598000000000
Cl     -5.512780000000000      2.919842000000000      1.506519000000000
Cl     -4.157344000000000      1.184876000000000      4.449859000000000
Cl     -3.822219000000000     -4.348996000000000      0.993506000000000
Cl     -3.380530000000000     -2.497437000000000      4.228684000000000
Cl      5.428120000000000     -2.487184000000000     -1.458241000000000
Cl      5.882338000000000     -0.524091000000000      1.982484000000000
Cl      4.056988000000000     -0.440486000000000     -4.655523000000000
Cl      4.947692000000000      3.408498000000000      2.085338000000000
Cl     -1.938573000000000     -3.802244000000000     -4.417432000000000
Cl      3.825287000000000      5.132570000000000     -1.078002000000000
Cl     -0.636467000000000     -5.935630000000000     -1.001878000000000
Cl      3.111898000000000     -5.273206000000000      0.270655000000000
Cl      3.599354000000000     -3.187637000000000      3.949091000000000
Cl      0.050203000000000      6.680998000000000     -1.306569000000000
