100

C       1.883432000000000      2.343370000000000     -2.992372000000000
C      -2.850901000000000      1.855177000000000     -2.525614000000000
C       0.590970000000000     -1.909647000000000      3.920437000000000
C      -3.725285000000000     -1.096557000000000      2.346199000000000
C       1.612271000000000      0.948909000000000     -3.514002000000000
C      -1.782726000000000      2.873741000000000     -2.213123000000000
C       0.432072000000000     -3.087919000000000      3.111113000000000
C      -2.793270000000000     -0.509456000000000      3.385718000000000
C       0.323238000000000      0.453791000000000     -3.846546000000000
C      -1.731137000000000      3.552660000000000     -1.023639000000000
C      -2.553263000000000      0.827194000000000      3.474115000000000
C      -0.808653000000000     -3.397234000000000      2.487687000000000
C      -0.775027000000000      1.315061000000000     -3.601071000000000
C      -1.908874000000000     -2.582070000000000      2.845848000000000
C      -0.590745000000000      2.569911000000000     -2.891837000000000
C      -1.770859000000000     -1.445928000000000      3.713229000000000
C       0.655624000000000      2.993974000000000     -2.403556000000000
C      -0.496493000000000     -1.032537000000000      4.184521000000000
C       0.703152000000000      3.694220000000000     -1.183991000000000
C      -0.229711000000000      0.382509000000000      4.278265000000000
C       1.999388000000000      3.794184000000000     -0.405944000000000
C       1.098089000000000      0.821056000000000      4.078295000000000
C       2.968097000000000      2.691221000000000     -0.779311000000000
C       2.161205000000000     -0.087263000000000      3.807907000000000
C       2.929387000000000      2.057686000000000     -1.941967000000000
C       1.914419000000000     -1.425088000000000      3.742684000000000
C       3.572173000000000      0.702288000000000     -2.133155000000000
C       2.703805000000000     -2.337844000000000      2.823522000000000
C       2.638553000000000      0.087098000000000     -3.136926000000000
C       1.659713000000000     -3.376486000000000      2.478046000000000
C       2.462934000000000     -1.274761000000000     -3.213386000000000
C       1.658974000000000     -4.040362000000000      1.281248000000000
C       1.221041000000000     -1.796062000000000     -3.617985000000000
C       0.448243000000000     -4.448970000000000      0.682364000000000
C       0.089375000000000     -0.965166000000000     -3.855539000000000
C      -0.823176000000000     -4.050939000000000      1.206366000000000
C      -1.233911000000000     -1.488408000000000     -3.547851000000000
C      -1.925278000000000     -3.818585000000000      0.306467000000000
C      -2.288329000000000     -0.569225000000000     -3.237913000000000
C      -3.745232000000000     -0.082324000000000     -1.275787000000000
C      -3.952435000000000     -0.799091000000000     -0.100436000000000
C      -2.973864000000000     -2.946221000000000      0.684035000000000
C      -2.044130000000000      0.799586000000000     -3.296179000000000
C      -3.405955000000000      1.266916000000000     -1.242937000000000
C      -3.829094000000000     -0.181710000000000      1.141647000000000
C      -2.983503000000000     -2.378659000000000      1.957276000000000
C      -3.314885000000000      1.926017000000000      0.003775000000000
C      -3.528306000000000      1.196143000000000      1.195335000000000
C      -2.763634000000000      3.361224000000000      0.059924000000000
C      -3.200097000000000      1.835401000000000      2.543042000000000
C      -1.922087000000000      3.597992000000000      1.289481000000000
C      -2.094835000000000      2.865347000000000      2.398547000000000
C      -0.492577000000000      3.978264000000000     -0.511321000000000
C      -1.268609000000000      1.299928000000000      3.904390000000000
C      -0.601862000000000      4.259800000000000      0.966668000000000
C      -0.991235000000000      2.531928000000000      3.271835000000000
C       1.774641000000000      3.500961000000000      1.062711000000000
C       1.373364000000000      2.058427000000000      3.396784000000000
C       2.770303000000000      2.615033000000000      1.533634000000000
C       2.589754000000000      1.921700000000000      2.695234000000000
C       3.635026000000000      2.075972000000000      0.429516000000000
C       3.214553000000000      0.563720000000000      2.932439000000000
C       3.565444000000000      0.535055000000000      0.401697000000000
C       3.355205000000000     -0.191904000000000      1.595804000000000
C       3.547972000000000     -0.131068000000000     -0.837161000000000
C       3.121168000000000     -1.583679000000000      1.543910000000000
C       3.330842000000000     -1.529619000000000     -0.892667000000000
C       3.113115000000000     -2.258579000000000      0.298026000000000
C       3.172268000000000     -2.220229000000000     -2.263158000000000
C       2.719957000000000     -3.755704000000000      0.234832000000000
C       2.177105000000000     -3.360758000000000     -2.187974000000000
C       1.961458000000000     -4.066053000000000     -1.035794000000000
C       1.084435000000000     -3.110792000000000     -3.052585000000000
C       0.652945000000000     -4.562970000000000     -0.744204000000000
C      -0.195863000000000     -3.616049000000000     -2.784075000000000
C      -0.398764000000000     -4.406130000000000     -1.619183000000000
C      -1.348688000000000     -2.832971000000000     -3.078659000000000
C      -1.823287000000000     -4.258156000000000     -1.145724000000000
C      -3.504101000000000     -1.014031000000000     -2.449347000000000
C      -3.890325000000000     -2.298729000000000     -0.345425000000000
C      -2.344420000000000     -3.174434000000000     -2.088863000000000
C      -3.316510000000000     -2.322233000000000     -1.732176000000000
C       0.563412000000000      3.658780000000000      1.721945000000000
C       0.338331000000000      2.905921000000000      2.921145000000000
Cl      5.296936000000000      0.854722000000000     -2.755211000000000
Cl      4.808191000000000     -2.783697000000000     -2.875376000000000
Cl      4.222284000000000     -4.797516000000000      0.410249000000000
Cl      4.174564000000000     -3.046883000000000      3.661071000000000
Cl      5.390904000000000      2.610368000000000      0.593633000000000
Cl      4.844569000000000      0.673978000000000      3.768292000000000
Cl     -4.166030000000000      4.551395000000000     -0.090413000000000
Cl     -4.717915000000000      2.562765000000000      3.284143000000000
Cl     -4.197099000000000      2.569733000000000     -3.552408000000000
Cl     -5.385483000000000     -1.442227000000000      3.062422000000000
Cl      2.563806000000000      3.421341000000000     -4.355042000000000
Cl     -5.570327000000000     -3.069861000000000     -0.266817000000000
Cl      2.762582000000000      5.460561000000000     -0.640705000000000
Cl     -5.004465000000000     -1.082056000000000     -3.569579000000000
Cl     -2.782879000000000     -5.843643000000000     -1.369880000000000
Cl     -0.674524000000000      6.103764000000000      1.311522000000000
