102

C       1.768340000000000      2.296303000000000     -3.252583000000000
C      -2.896551000000000      2.258282000000000     -2.224882000000000
C       0.950635000000000     -1.937399000000000      4.088562000000000
C      -3.450852000000000     -0.590523000000000      2.757228000000000
C       1.302982000000000      0.931497000000000     -3.715893000000000
C      -1.708902000000000      3.174552000000000     -2.053153000000000
C       0.546292000000000     -2.980272000000000      3.071631000000000
C      -2.357158000000000     -0.084911000000000      3.666851000000000
C      -0.059698000000000      0.555523000000000     -3.882410000000000
C      -1.454892000000000      3.848696000000000     -0.883158000000000
C      -1.997695000000000      1.221541000000000      3.709000000000000
C      -0.780700000000000     -3.164146000000000      2.598101000000000
C      -1.029025000000000      1.513102000000000     -3.515672000000000
C      -1.756036000000000     -2.255689000000000      3.073661000000000
C      -0.640131000000000      2.767064000000000     -2.861237000000000
C      -1.382921000000000     -1.109206000000000      3.898915000000000
C       0.686265000000000      3.064676000000000     -2.530329000000000
C      -0.069377000000000     -0.829081000000000      4.228009000000000
C       0.944789000000000      3.759876000000000     -1.331052000000000
C       0.344434000000000      0.548633000000000      4.249454000000000
C       2.324513000000000      3.724059000000000     -0.706025000000000
C       1.672231000000000      0.859630000000000      3.895572000000000
C       3.126553000000000      2.529018000000000     -1.179001000000000
C       2.596006000000000     -0.179069000000000      3.480120000000000
C       2.893504000000000      1.905789000000000     -2.325005000000000
C       2.261838000000000     -1.472077000000000      3.504302000000000
C       3.374182000000000      0.493543000000000     -2.578716000000000
C       2.820568000000000     -2.439412000000000      2.490497000000000
C       2.267620000000000     -0.023869000000000     -3.452404000000000
C       1.629833000000000     -3.334898000000000      2.283791000000000
C       1.948864000000000     -1.371026000000000     -3.498067000000000
C       1.435521000000000     -4.019082000000000      1.096242000000000
C       0.640589000000000     -1.774191000000000     -3.759320000000000
C       0.144195000000000     -4.311898000000000      0.658478000000000
C      -0.431274000000000     -0.833955000000000     -3.849725000000000
C      -1.008746000000000     -3.801548000000000      1.329065000000000
C      -1.745072000000000     -1.211021000000000     -3.389966000000000
C      -2.181714000000000     -3.466670000000000      0.559760000000000
C      -2.641235000000000     -0.225402000000000     -2.964672000000000
C      -3.794470000000000      0.404851000000000     -0.854493000000000
C      -3.930926000000000     -0.283408000000000      0.346600000000000
C      -3.079367000000000     -2.509691000000000      1.041136000000000
C      -2.288937000000000      1.134368000000000     -3.072066000000000
C      -3.335902000000000      1.719847000000000     -0.878960000000000
C      -3.611282000000000      0.324032000000000      1.557209000000000
C      -2.876529000000000     -1.938428000000000      2.313690000000000
C      -3.048841000000000      2.374057000000000      0.339614000000000
C      -3.188392000000000      1.670119000000000      1.557529000000000
C      -2.368907000000000      3.754659000000000      0.314504000000000
C      -2.655558000000000      2.284202000000000      2.851810000000000
C      -1.373290000000000      3.912376000000000      1.437729000000000
C      -1.483440000000000      3.205418000000000      2.567270000000000
C      -0.131238000000000      4.153147000000000     -0.529052000000000
C      -0.632905000000000      1.564902000000000      3.982387000000000
C      -0.039036000000000      4.442144000000000      0.953892000000000
C      -0.314813000000000      2.764868000000000      3.310129000000000
C       2.240577000000000      3.450437000000000      0.781701000000000
C       1.976809000000000      2.039452000000000      3.166508000000000
C       3.196469000000000      2.461656000000000      1.142018000000000
C       3.085358000000000      1.785227000000000      2.314702000000000
C       3.871240000000000      1.849760000000000     -0.053437000000000
C       3.599109000000000      0.376228000000000      2.486898000000000
C       3.659090000000000      0.323107000000000     -0.062839000000000
C       3.527882000000000     -0.382011000000000      1.153637000000000
C       3.427629000000000     -0.335810000000000     -1.283336000000000
C       3.162643000000000     -1.742409000000000      1.152279000000000
C       3.071980000000000     -1.706896000000000     -1.295928000000000
C       2.938510000000000     -2.411134000000000     -0.076251000000000
C       2.681147000000000     -2.378854000000000     -2.630412000000000
C       2.395224000000000     -3.857287000000000     -0.069554000000000
C       1.598635000000000     -3.417262000000000     -2.421972000000000
C       1.465704000000000     -4.096345000000000     -1.241215000000000
C       0.439817000000000     -3.080990000000000     -3.162389000000000
C       0.171899000000000     -4.445895000000000     -0.785496000000000
C      -0.820951000000000     -3.468846000000000     -2.742910000000000
C      -0.956601000000000     -4.161799000000000     -1.534187000000000
C      -2.055434000000000     -2.675377000000000     -3.078148000000000
C      -2.298714000000000     -3.921945000000000     -0.896352000000000
C      -3.804872000000000     -0.544950000000000     -2.040747000000000
C      -4.043257000000000     -1.780297000000000      0.119679000000000
C      -2.849939000000000     -2.825573000000000     -1.791973000000000
C      -3.643216000000000     -1.868112000000000     -1.332797000000000
C       1.143084000000000      3.726730000000000      1.574381000000000
C       0.984416000000000      2.999472000000000      2.805022000000000
Cl      5.013934000000000      0.478713000000000     -3.412819000000000
Cl      4.166856000000000     -3.095832000000000     -3.431601000000000
Cl      3.784079000000000     -5.054273000000000     -0.055583000000000
Cl      4.297211000000000     -3.341995000000000      3.122294000000000
Cl      5.675136000000000      2.222722000000000     -0.103689000000000
Cl      5.312006000000000      0.335025000000000      3.147859000000000
Cl     -3.665456000000000      5.065805000000000      0.308107000000000
Cl     -4.010543000000000      3.150890000000000      3.739867000000000
Cl     -4.290839000000000      3.094543000000000     -3.080084000000000
Cl     -5.397921000000000     -0.466229000000000     -2.964791000000000
Cl     -5.048797000000000     -0.780360000000000      3.649048000000000
Cl     -5.763924000000000     -2.388015000000000      0.380603000000000
Cl     -2.956643000000000     -3.423715000000000     -4.519898000000000
Cl      2.382159000000000      3.303721000000000     -4.691094000000000
Cl      3.223053000000000      5.304433000000000     -1.037438000000000
Cl     -3.354240000000000     -5.447511000000000     -0.963029000000000
Cl      0.100301000000000      6.274915000000000      1.270994000000000
Cl      1.204858000000000     -2.735489000000000      5.774742000000000
