104

C      -1.249558000000000     -1.352338000000000      3.988053000000000
C      -0.196060000000000      3.187251000000000      2.928228000000000
C      -0.045495000000000     -0.980710000000000     -4.117205000000000
C       0.613439000000000      3.424473000000000     -2.771230000000000
C       0.258396000000000     -1.345483000000000      3.870516000000000
C      -1.420138000000000      2.330836000000000      3.144168000000000
C       1.335441000000000     -1.040118000000000     -3.846277000000000
C      -0.492842000000000      2.596654000000000     -3.386547000000000
C       1.061938000000000     -0.170564000000000      3.844390000000000
C      -2.521489000000000      2.392101000000000      2.325315000000000
C      -1.777371000000000      2.594384000000000     -2.902378000000000
C       2.105099000000000      0.122392000000000     -3.515374000000000
C       0.379880000000000      1.065130000000000      3.864817000000000
C       1.441624000000000      1.354226000000000     -3.643900000000000
C      -1.081799000000000      1.116456000000000      3.753726000000000
C       0.024076000000000      1.421995000000000     -3.953190000000000
C      -1.866929000000000     -0.030266000000000      3.594905000000000
C      -0.762607000000000      0.255723000000000     -4.092392000000000
C      -3.002923000000000      0.038993000000000      2.762660000000000
C      -2.111349000000000      0.278519000000000     -3.621758000000000
C      -3.630447000000000     -1.224014000000000      2.214492000000000
C      -2.843887000000000     -1.019321000000000     -3.355713000000000
C      -2.654400000000000     -2.384266000000000      2.210399000000000
C      -1.916638000000000     -2.203719000000000     -3.176415000000000
C      -1.602248000000000     -2.449778000000000      3.013098000000000
C      -0.655677000000000     -2.192694000000000     -3.620795000000000
C      -0.417137000000000     -3.338498000000000      2.704030000000000
C       0.406993000000000     -3.137435000000000     -3.088056000000000
C       0.704963000000000     -2.516222000000000      3.274547000000000
C       1.648285000000000     -2.296816000000000     -3.258917000000000
C       1.989569000000000     -2.601292000000000      2.777821000000000
C       2.723190000000000     -2.403887000000000     -2.432824000000000
C       2.842728000000000     -1.490043000000000      2.817634000000000
C       3.562476000000000     -1.300889000000000     -2.155161000000000
C       2.374666000000000     -0.207920000000000      3.259113000000000
C       3.207120000000000      0.022285000000000     -2.600874000000000
C       2.924142000000000      0.981901000000000      2.668751000000000
C       3.575223000000000      1.169118000000000     -1.834763000000000
C       2.180288000000000      2.165697000000000      2.652536000000000
C       1.190679000000000      3.660003000000000      0.933969000000000
C       1.386694000000000      3.720289000000000     -0.441567000000000
C       2.840766000000000      2.367287000000000     -1.936294000000000
C       0.923825000000000      2.204519000000000      3.286231000000000
C      -0.091893000000000      3.587488000000000      1.471015000000000
C       0.303249000000000      3.706549000000000     -1.316396000000000
C       1.804032000000000      2.463474000000000     -2.868330000000000
C      -1.206038000000000      3.614803000000000      0.603047000000000
C      -1.007939000000000      3.671508000000000     -0.792818000000000
C      -2.607025000000000      3.347182000000000      1.163094000000000
C      -2.194580000000000      3.456077000000000     -1.738556000000000
C      -3.456691000000000      2.545906000000000      0.200955000000000
C      -3.268536000000000      2.593784000000000     -1.112517000000000
C      -3.320043000000000      1.253044000000000      2.143854000000000
C      -2.588750000000000      1.445513000000000     -3.035431000000000
C      -4.160615000000000      1.396276000000000      0.891240000000000
C      -3.743026000000000      1.505902000000000     -2.052129000000000
C      -3.905144000000000     -1.079270000000000      0.732548000000000
C      -3.521990000000000     -0.980565000000000     -2.005397000000000
C      -3.464082000000000     -2.211831000000000      0.049607000000000
C      -3.275761000000000     -2.164603000000000     -1.310363000000000
C      -2.709691000000000     -3.173155000000000      0.921406000000000
C      -2.307275000000000     -3.076885000000000     -2.009331000000000
C      -1.311796000000000     -3.418638000000000      0.327309000000000
C      -1.114450000000000     -3.372204000000000     -1.072584000000000
C      -0.203427000000000     -3.506575000000000      1.189118000000000
C       0.193296000000000     -3.417321000000000     -1.595021000000000
C       1.108362000000000     -3.564633000000000      0.660717000000000
C       1.313193000000000     -3.521883000000000     -0.732591000000000
C       2.319757000000000     -3.498252000000000      1.603321000000000
C       2.747017000000000     -3.408809000000000     -1.309444000000000
C       3.470643000000000     -2.739324000000000      0.969766000000000
C       3.699420000000000     -2.726251000000000     -0.366155000000000
C       3.819797000000000     -1.625462000000000      1.778590000000000
C       4.460661000000000     -1.608774000000000     -1.022037000000000
C       4.360976000000000     -0.474220000000000      1.184679000000000
C       4.601505000000000     -0.422272000000000     -0.160371000000000
C       4.177034000000000      0.885661000000000      1.804067000000000
C       4.548854000000000      0.989554000000000     -0.672494000000000
C       2.470304000000000      3.278672000000000      1.660140000000000
C       2.826232000000000      3.391312000000000     -0.811943000000000
C       4.080159000000000      1.738358000000000      0.560110000000000
C       3.317613000000000      2.821846000000000      0.496280000000000
C      -4.107162000000000      0.132111000000000      0.061397000000000
C      -3.910922000000000      0.183179000000000     -1.332895000000000
Cl     -0.582080000000000     -4.983858000000000      3.509371000000000
Cl      2.822363000000000     -5.191079000000000      2.100896000000000
Cl      3.331585000000000     -5.076711000000000     -1.825840000000000
Cl      0.451780000000000     -4.692774000000000     -4.058297000000000
Cl     -3.592681000000000     -4.773480000000000      1.136626000000000
Cl     -3.084338000000000     -4.658142000000000     -2.545435000000000
Cl     -3.399708000000000      4.944319000000000      1.621308000000000
Cl     -2.849444000000000      5.088816000000000     -2.286151000000000
Cl     -0.196699000000000      4.670472000000000      4.011084000000000
Cl      3.225717000000000      4.725052000000000      2.516864000000000
Cl      0.902902000000000      4.979625000000000     -3.702031000000000
Cl      3.767957000000000      4.896943000000000     -1.296715000000000
Cl      5.649343000000000      1.337960000000000      2.835671000000000
Cl     -1.772583000000000     -1.781693000000000      5.723981000000000
Cl     -5.169553000000000     -1.632860000000000      3.146887000000000
Cl      6.206032000000000      1.595982000000000     -1.245551000000000
Cl     -5.912560000000000      1.820820000000000      1.292336000000000
Cl     -5.314458000000000      1.980500000000000     -2.897233000000000
Cl     -4.073945000000000     -1.335976000000000     -4.717439000000000
Cl      6.202921000000000     -2.196705000000000     -1.659118000000000
