86

C       0.659709000000000      4.036895000000000      1.411451000000000
C      -1.723598000000000      2.720622000000000     -2.207188000000000
C       0.659711000000000     -4.036895000000000      1.411448000000000
C      -1.723597000000000     -2.720621000000000     -2.207190000000000
C       1.712604000000000      3.988765000000000      0.450556000000000
C      -2.098350000000000      3.300655000000000     -0.927831000000000
C       1.712606000000000     -3.988765000000000      0.450553000000000
C      -2.098349000000000     -3.300656000000000     -0.927834000000000
C       1.462465000000000      3.811453000000000     -0.943567000000000
C      -2.998757000000000      2.675365000000000     -0.120220000000000
C      -2.998756000000000     -2.675366000000000     -0.120222000000000
C       1.462467000000000     -3.811452000000000     -0.943570000000000
C       0.104159000000000      3.868016000000000     -1.326143000000000
C       0.104161000000000     -3.868015000000000     -1.326145000000000
C      -0.948988000000000      3.975081000000000     -0.371330000000000
C      -0.948986000000000     -3.975081000000000     -0.371333000000000
C      -0.703106000000000      3.962554000000000      1.028543000000000
C      -0.703104000000000     -3.962555000000000      1.028540000000000
C      -1.647771000000000      3.254668000000000      1.894600000000000
C      -1.647769000000000     -3.254670000000000      1.894598000000000
C      -1.171492000000000      2.652547000000000      3.090150000000000
C      -1.171491000000000     -2.652550000000000      3.090148000000000
C       0.245848000000000      2.667893000000000      3.405550000000000
C       0.245849000000000     -2.667895000000000      3.405548000000000
C       1.126698000000000      3.339766000000000      2.599763000000000
C       1.126699000000000     -3.339768000000000      2.599760000000000
C       2.424704000000000      2.780995000000000      2.347263000000000
C       2.424706000000000     -2.780996000000000      2.347261000000000
C       2.828930000000000      3.314635000000000      1.074496000000000
C       2.828931000000000     -3.314634000000000      1.074494000000000
C       3.735311000000000      2.641869000000000      0.309952000000000
C       3.735312000000000     -2.641867000000000      0.309950000000000
C       3.598335000000000      2.594954000000000     -1.137000000000000
C       3.598336000000000     -2.594951000000000     -1.137002000000000
C       2.412615000000000      3.045288000000000     -1.766981000000000
C       2.412616000000000     -3.045286000000000     -1.766983000000000
C       1.929320000000000      2.301608000000000     -2.934065000000000
C       1.929321000000000     -2.301605000000000     -2.934067000000000
C       0.497394000000000      2.305999000000000     -3.243476000000000
C      -1.402722000000000      0.719193000000000     -3.479533000000000
C      -1.402722000000000     -0.719191000000000     -3.479533000000000
C       0.497395000000000     -2.305997000000000     -3.243478000000000
C      -0.385272000000000      3.103414000000000     -2.465827000000000
C      -2.215848000000000      1.437001000000000     -2.586940000000000
C      -2.215847000000000     -1.437000000000000     -2.586941000000000
C      -0.385271000000000     -3.103413000000000     -2.465829000000000
C      -3.113698000000000      0.694903000000000     -1.704885000000000
C      -3.113697000000000     -0.694903000000000     -1.704886000000000
C      -3.813399000000000      1.477591000000000     -0.586827000000000
C      -3.813399000000000     -1.477593000000000     -0.586828000000000
C      -3.904234000000000      0.677490000000000      0.694119000000000
C      -3.904232000000000     -0.677492000000000      0.694118000000000
C      -2.781059000000000      2.630196000000000      1.295222000000000
C      -2.781058000000000     -2.630198000000000      1.295220000000000
C      -3.316442000000000      1.401133000000000      1.787310000000000
C      -3.316441000000000     -1.401135000000000      1.787308000000000
C      -1.700359000000000      1.421820000000000      3.574984000000000
C      -1.700359000000000     -1.421823000000000      3.574983000000000
C      -0.604069000000000      0.684245000000000      4.179969000000000
C      -0.604069000000000     -0.684249000000000      4.179970000000000
C       0.626965000000000      1.398343000000000      3.966186000000000
C       0.626966000000000     -1.398346000000000      3.966185000000000
C       1.822586000000000      0.732142000000000      3.582240000000000
C       1.822586000000000     -0.732144000000000      3.582239000000000
C       2.770463000000000      1.459685000000000      2.741299000000000
C       2.770464000000000     -1.459686000000000      2.741298000000000
C       3.736897000000000      0.730500000000000      1.918648000000000
C       3.736897000000000     -0.730500000000000      1.918648000000000
C       4.285915000000000      1.396526000000000      0.784906000000000
C       4.285915000000000     -1.396524000000000      0.784905000000000
C       4.730508000000000      0.688853000000000     -0.382984000000000
C       4.730509000000000     -0.688851000000000     -0.382984000000000
C       4.293765000000000      1.420121000000000     -1.565740000000000
C       4.293766000000000     -1.420118000000000     -1.565741000000000
C       3.850715000000000      0.728449000000000     -2.681256000000000
C       3.850716000000000     -0.728445000000000     -2.681257000000000
C       2.686530000000000      1.185053000000000     -3.380537000000000
C       2.686531000000000     -1.185050000000000     -3.380538000000000
C      -0.092379000000000      1.173738000000000     -3.855641000000000
C      -0.092379000000000     -1.173735000000000     -3.855642000000000
C       2.038848000000000      0.000002000000000     -3.914607000000000
C       0.687098000000000      0.000002000000000     -4.143351000000000
C      -2.742230000000000      0.729231000000000      2.903227000000000
C      -2.742229000000000     -0.729234000000000      2.903227000000000
Cl     -5.485291000000000      2.027652000000000     -1.180041000000000
Cl     -5.485290000000000     -2.027651000000000     -1.180042000000000
