86

C       3.034105000000000      0.653915000000000      2.450690000000000
C      -1.100327000000000     -0.100911000000000      4.126777000000000
C      -1.577192000000000     -1.409841000000000     -3.800147000000000
C      -4.225378000000000     -1.509643000000000     -0.130922000000000
C       2.503534000000000      1.975983000000000      2.344418000000000
C       0.140857000000000     -0.828723000000000      4.196068000000000
C      -2.065200000000000     -0.067756000000000     -3.842712000000000
C      -3.645088000000000     -2.533796000000000     -0.959625000000000
C       1.261765000000000      2.348284000000000      2.946164000000000
C       0.195740000000000     -2.124977000000000      3.754126000000000
C      -2.849062000000000     -3.496414000000000     -0.394691000000000
C      -3.116866000000000      0.385491000000000     -2.993109000000000
C       0.680657000000000      1.378176000000000      3.793927000000000
C      -3.769826000000000     -0.623045000000000     -2.248050000000000
C       1.241733000000000      0.080474000000000      3.952248000000000
C      -3.326906000000000     -1.977702000000000     -2.257843000000000
C       2.377690000000000     -0.348256000000000      3.210932000000000
C      -2.154163000000000     -2.386419000000000     -2.952852000000000
C       2.435452000000000     -1.722064000000000      2.731901000000000
C      -1.285758000000000     -3.406251000000000     -2.339482000000000
C       3.128939000000000     -1.977544000000000      1.515764000000000
C       0.110512000000000     -3.360845000000000     -2.591462000000000
C       3.778010000000000     -0.926471000000000      0.778311000000000
C       0.685711000000000     -2.288720000000000     -3.390717000000000
C       3.741012000000000      0.344811000000000      1.236745000000000
C      -0.133329000000000     -1.353413000000000     -3.987039000000000
C       3.732710000000000      1.525290000000000      0.291985000000000
C       0.283971000000000      0.005666000000000     -4.043872000000000
C       2.905236000000000      2.510014000000000      1.085705000000000
C      -0.927891000000000      0.786567000000000     -4.098892000000000
C       2.126651000000000      3.428419000000000      0.470391000000000
C      -0.928191000000000      2.076710000000000     -3.664337000000000
C       0.926513000000000      3.929843000000000      1.106332000000000
C      -2.066059000000000      2.615228000000000     -2.936653000000000
C       0.407708000000000      3.326149000000000      2.280369000000000
C      -3.098166000000000      1.760999000000000     -2.473986000000000
C      -1.046447000000000      3.240852000000000      2.427437000000000
C      -3.693109000000000      2.050833000000000     -1.166036000000000
C      -1.621289000000000      2.153329000000000      3.227026000000000
C      -3.175779000000000      0.220186000000000      2.970477000000000
C      -4.009099000000000     -0.155823000000000      1.835478000000000
C      -4.278531000000000      0.956833000000000     -0.382887000000000
C      -0.764491000000000      1.273631000000000      3.918745000000000
C      -2.257634000000000     -0.687367000000000      3.537113000000000
C      -3.926504000000000     -1.439603000000000      1.262394000000000
C      -4.336821000000000     -0.335852000000000     -0.937999000000000
C      -2.193976000000000     -2.056915000000000      3.010910000000000
C      -3.032828000000000     -2.433982000000000      1.867610000000000
C      -0.989864000000000     -2.769305000000000      3.216111000000000
C      -2.588609000000000     -3.487378000000000      1.035233000000000
C      -0.517409000000000     -3.744364000000000      2.278087000000000
C      -1.304080000000000     -4.097192000000000      1.205623000000000
C       1.362826000000000     -2.606377000000000      3.036540000000000
C      -1.668123000000000     -3.973494000000000     -1.089283000000000
C       0.921380000000000     -3.600585000000000      2.117679000000000
C      -0.709142000000000     -4.339473000000000     -0.099724000000000
C       2.678753000000000     -2.969445000000000      0.594845000000000
C       1.068021000000000     -3.711616000000000     -1.594143000000000
C       3.018365000000000     -2.534485000000000     -0.726000000000000
C       2.223660000000000     -2.861164000000000     -1.774966000000000
C       3.785678000000000     -1.228980000000000     -0.703870000000000
C       1.929635000000000     -1.885590000000000     -2.822403000000000
C       3.088857000000000     -0.120753000000000     -1.524329000000000
C       2.266110000000000     -0.519170000000000     -2.671248000000000
C       3.071752000000000      1.179758000000000     -1.060107000000000
C       1.423462000000000      0.468710000000000     -3.321943000000000
C       2.251561000000000      2.208168000000000     -1.711593000000000
C       1.423707000000000      1.844069000000000     -2.848268000000000
C       1.905549000000000      3.370118000000000     -0.976275000000000
C       0.290630000000000      2.661894000000000     -3.148996000000000
C       0.696253000000000      4.082836000000000     -1.222751000000000
C      -0.105639000000000      3.733183000000000     -2.299687000000000
C       0.082382000000000      4.414290000000000      0.059863000000000
C      -1.557678000000000      3.697788000000000     -2.152064000000000
C      -1.293661000000000      4.353046000000000      0.208834000000000
C      -2.134573000000000      3.983258000000000     -0.925817000000000
C      -1.854592000000000      3.790109000000000      1.399535000000000
C      -3.216536000000000      3.178543000000000     -0.448647000000000
C      -2.893735000000000      1.613943000000000      2.874629000000000
C      -4.240514000000000      1.008023000000000      1.043035000000000
C      -3.102072000000000      3.157310000000000      1.002785000000000
C      -3.602839000000000      2.105685000000000      1.719505000000000
C       1.520575000000000     -3.764286000000000      0.841312000000000
C       0.684780000000000     -4.149020000000000     -0.296995000000000
Cl      5.436107000000000      2.190140000000000     -0.022891000000000
Cl      5.502434000000000     -1.471341000000000     -1.371661000000000
