86

C       2.205545000000000     -2.816521000000000      1.767282000000000
C      -1.288127000000000     -0.958361000000000      3.961881000000000
C      -1.865529000000000      1.482288000000000     -3.692089000000000
C      -4.039664000000000      1.961729000000000      0.250055000000000
C       2.826193000000000     -1.598794000000000      2.182606000000000
C      -0.991430000000000     -2.304591000000000      3.535369000000000
C      -1.188402000000000      2.638702000000000     -3.202345000000000
C      -4.333843000000000      1.236823000000000     -0.959444000000000
C       2.202464000000000     -0.718804000000000      3.117145000000000
C      -1.865863000000000     -2.961318000000000      2.708524000000000
C      -4.554455000000000     -0.114310000000000     -0.903997000000000
C      -1.633396000000000      3.346937000000000     -2.050390000000000
C       1.024528000000000     -1.206550000000000      3.728234000000000
C      -2.885702000000000      2.938317000000000     -1.535369000000000
C       0.437134000000000     -2.446808000000000      3.357219000000000
C      -3.593203000000000      1.819209000000000     -2.060165000000000
C       0.957733000000000     -3.240347000000000      2.296204000000000
C      -3.051356000000000      0.996245000000000     -3.087150000000000
C       0.029754000000000     -3.942291000000000      1.413140000000000
C      -3.277522000000000     -0.456349000000000     -3.025388000000000
C       0.412772000000000     -4.147542000000000      0.059097000000000
C      -2.287540000000000     -1.329261000000000     -3.555258000000000
C       1.674918000000000     -3.642762000000000     -0.439790000000000
C      -1.043323000000000     -0.794445000000000     -4.081651000000000
C       2.555928000000000     -3.040751000000000      0.395273000000000
C      -0.843788000000000      0.554774000000000     -4.157809000000000
C       3.517518000000000     -1.988385000000000     -0.113418000000000
C       0.458879000000000      1.098929000000000     -3.872089000000000
C       3.623481000000000     -1.100456000000000      1.103662000000000
C       0.230886000000000      2.429811000000000     -3.419887000000000
C       3.851902000000000      0.224580000000000      0.998270000000000
C       1.149686000000000      3.044027000000000     -2.608521000000000
C       3.297621000000000      1.135815000000000      1.963271000000000
C       0.709331000000000      3.909666000000000     -1.521833000000000
C       2.399182000000000      0.715364000000000      2.979455000000000
C      -0.653511000000000      3.967941000000000     -1.144088000000000
C       1.350936000000000      1.641932000000000      3.409638000000000
C      -0.965998000000000      4.101735000000000      0.283362000000000
C       0.094754000000000      1.099933000000000      3.941521000000000
C      -2.345035000000000      1.128943000000000      3.437295000000000
C      -3.079171000000000      1.908772000000000      2.445845000000000
C      -2.236195000000000      3.575091000000000      0.791641000000000
C      -0.036886000000000     -0.289499000000000      4.123616000000000
C      -2.444504000000000     -0.277085000000000      3.481517000000000
C      -3.913454000000000      1.283182000000000      1.498786000000000
C      -3.174664000000000      3.039074000000000     -0.110512000000000
C      -3.357387000000000     -0.955326000000000      2.554259000000000
C      -4.096161000000000     -0.170907000000000      1.559452000000000
C      -3.084714000000000     -2.312528000000000      2.263161000000000
C      -4.493990000000000     -0.816495000000000      0.365091000000000
C      -3.393890000000000     -2.890073000000000      0.987702000000000
C      -4.087942000000000     -2.155013000000000      0.056214000000000
C      -1.369100000000000     -3.820901000000000      1.646158000000000
C      -4.050488000000000     -0.984785000000000     -1.954259000000000
C      -2.308771000000000     -3.768690000000000      0.577331000000000
C      -3.750196000000000     -2.243958000000000     -1.357041000000000
C      -0.529599000000000     -4.089653000000000     -1.008883000000000
C      -1.979524000000000     -2.581367000000000     -2.946071000000000
C       0.153560000000000     -3.531719000000000     -2.166634000000000
C      -0.548991000000000     -2.805206000000000     -3.102990000000000
C       1.473531000000000     -3.134265000000000     -1.795171000000000
C       0.049545000000000     -1.654830000000000     -3.693458000000000
C       2.013575000000000     -1.894556000000000     -2.210447000000000
C       1.281728000000000     -1.127538000000000     -3.205368000000000
C       2.962364000000000     -1.208972000000000     -1.327228000000000
C       1.499307000000000      0.304590000000000     -3.306157000000000
C       3.187610000000000      0.150946000000000     -1.437521000000000
C       2.462183000000000      0.953279000000000     -2.430454000000000
C       4.015523000000000      0.886803000000000     -0.356132000000000
C       2.335909000000000      2.346561000000000     -2.214883000000000
C       3.501446000000000      2.278671000000000     -0.057768000000000
C       2.790185000000000      2.983113000000000     -0.981973000000000
C       3.181806000000000      2.414037000000000      1.335026000000000
C       1.769179000000000      3.925088000000000     -0.563562000000000
C       2.203117000000000      3.305632000000000      1.764203000000000
C       1.475315000000000      4.084824000000000      0.783909000000000
C       1.305607000000000      2.924096000000000      2.810909000000000
C       0.111506000000000      4.195216000000000      1.200944000000000
C      -1.125557000000000      1.806207000000000      3.723344000000000
C      -2.308989000000000      3.063701000000000      2.124119000000000
C       0.037133000000000      3.573577000000000      2.516373000000000
C      -1.136211000000000      3.028100000000000      2.957217000000000
C      -1.907470000000000     -3.826879000000000     -0.786076000000000
C      -2.656334000000000     -3.043682000000000     -1.786349000000000
Cl      5.137545000000000     -2.763164000000000     -0.580711000000000
Cl      5.788315000000000      0.959039000000000     -0.910713000000000
