88

C      -0.080856000000000      4.008170000000000     -1.044459000000000
C       3.332658000000000      2.733758000000000      1.637867000000000
C      -0.080851000000000     -4.008172000000000     -1.044455000000000
C       3.332662000000000     -2.733752000000000      1.637869000000000
C      -0.785207000000000      3.946327000000000      0.198057000000000
C       3.276143000000000      3.315517000000000      0.318909000000000
C      -0.785202000000000     -3.946329000000000      0.198061000000000
C       3.276148000000000     -3.315512000000000      0.318913000000000
C      -0.101432000000000      3.793661000000000      1.441129000000000
C       3.864701000000000      2.664136000000000     -0.734406000000000
C       3.864704000000000     -2.664131000000000     -0.734403000000000
C      -0.101426000000000     -3.793661000000000      1.441133000000000
C       1.309098000000000      3.874242000000000      1.379639000000000
C       1.309104000000000     -3.874239000000000      1.379643000000000
C       2.009228000000000      3.992486000000000      0.147392000000000
C       2.009234000000000     -3.992483000000000      0.147396000000000
C       1.337626000000000      3.963768000000000     -1.107051000000000
C       1.337631000000000     -3.963768000000000     -1.107047000000000
C       1.964449000000000      3.275364000000000     -2.234466000000000
C       1.964453000000000     -3.275364000000000     -2.234463000000000
C       1.124428000000000      2.666485000000000     -3.205323000000000
C       1.124432000000000     -2.666488000000000     -3.205321000000000
C      -0.316564000000000      2.694851000000000     -3.059547000000000
C      -0.316560000000000     -2.694855000000000     -3.059544000000000
C      -0.894143000000000      3.376211000000000     -2.039879000000000
C      -0.894138000000000     -3.376215000000000     -2.039875000000000
C      -2.234034000000000      2.949002000000000     -1.473624000000000
C      -2.234030000000000     -2.949007000000000     -1.473621000000000
C      -2.066137000000000      3.350908000000000     -0.028217000000000
C      -2.066133000000000     -3.350912000000000     -0.028214000000000
C      -2.678263000000000      2.678566000000000      0.969310000000000
C      -2.678259000000000     -2.678568000000000      0.969312000000000
C      -2.047828000000000      2.562751000000000      2.254369000000000
C      -2.047824000000000     -2.562751000000000      2.254371000000000
C      -0.730826000000000      3.030116000000000      2.505387000000000
C      -0.730821000000000     -3.030115000000000      2.505389000000000
C       0.096019000000000      2.299792000000000      3.468794000000000
C       0.096022000000000     -2.299788000000000      3.468796000000000
C       1.552855000000000      2.317217000000000      3.315326000000000
C       3.439378000000000      0.729697000000000      2.950368000000000
C       3.439380000000000     -0.729690000000000      2.950371000000000
C       1.552859000000000     -2.317212000000000      3.315329000000000
C       2.132805000000000      3.115917000000000      2.311304000000000
C       3.936590000000000      1.460272000000000      1.851793000000000
C       3.936591000000000     -1.460265000000000      1.851795000000000
C       2.132810000000000     -3.115912000000000      2.311307000000000
C       4.524054000000000      0.733089000000000      0.720775000000000
C       4.524055000000000     -0.733082000000000      0.720776000000000
C       4.544520000000000      1.398030000000000     -0.527929000000000
C       4.544521000000000     -1.398025000000000     -0.527928000000000
C       4.435900000000000      0.687168000000000     -1.766731000000000
C       4.435901000000000     -0.687164000000000     -1.766730000000000
C       3.232736000000000      2.657345000000000     -2.042284000000000
C       3.232739000000000     -2.657343000000000     -2.042281000000000
C       3.573577000000000      1.427825000000000     -2.676360000000000
C       3.573579000000000     -1.427823000000000     -2.676358000000000
C       1.464080000000000      1.429472000000000     -3.828677000000000
C       1.464082000000000     -1.429474000000000     -3.828675000000000
C       0.223145000000000      0.695718000000000     -4.048813000000000
C       0.223147000000000     -0.695722000000000     -4.048811000000000
C      -0.852770000000000      1.403684000000000     -3.476095000000000
C      -0.852767000000000     -1.403689000000000     -3.476093000000000
C      -1.830531000000000      0.724759000000000     -2.682665000000000
C      -1.830529000000000     -0.724764000000000     -2.682661000000000
C      -2.461036000000000      1.426001000000000     -1.594112000000000
C      -2.461034000000000     -1.426007000000000     -1.594110000000000
C      -3.074821000000000      0.721712000000000     -0.557272000000000
C      -3.074822000000000     -0.721717000000000     -0.557271000000000
C      -3.578837000000000      1.487419000000000      0.687042000000000
C      -3.578833000000000     -1.487422000000000      0.687043000000000
C      -3.400249000000000      0.679515000000000      1.952378000000000
C      -3.400240000000000     -0.679514000000000      1.952371000000000
C      -2.568248000000000      1.392462000000000      2.884573000000000
C      -2.568243000000000     -1.392460000000000      2.884571000000000
C      -1.796003000000000      0.722048000000000      3.824063000000000
C      -1.796001000000000     -0.722045000000000      3.824062000000000
C      -0.476677000000000      1.185426000000000      4.128065000000000
C      -0.476675000000000     -1.185422000000000      4.128065000000000
C       2.318373000000000      1.176130000000000      3.707562000000000
C       2.318375000000000     -1.176124000000000      3.707564000000000
C       0.311992000000000      0.000003000000000      4.426779000000000
C       1.665365000000000      0.000003000000000      4.220885000000000
C       2.666633000000000      0.739430000000000     -3.527980000000000
C       2.666634000000000     -0.739430000000000     -3.527979000000000
Cl     -3.611414000000000      3.850780000000000     -2.317519000000000
Cl     -5.343867000000000      1.972493000000000      0.439131000000000
Cl     -5.343864000000000     -1.972499000000000      0.439140000000000
Cl     -3.611409000000000     -3.850786000000000     -2.317518000000000
