88

C      -1.804513000000000      1.082831000000000      3.375671000000000
C      -0.512111000000000      3.913936000000000     -0.107033000000000
C       1.021426000000000     -3.945631000000000     -2.280844000000000
C       1.420298000000000      0.256057000000000     -3.914722000000000
C      -0.470445000000000      1.310804000000000      3.776774000000000
C      -1.777312000000000      3.289185000000000      0.426069000000000
C       2.336074000000000     -3.647345000000000     -1.814144000000000
C       0.533902000000000     -0.842263000000000     -4.220170000000000
C       0.385245000000000      2.249753000000000      3.108624000000000
C      -2.659351000000000      2.633276000000000     -0.383780000000000
C      -0.818858000000000     -0.663907000000000     -4.130277000000000
C       3.045755000000000     -2.486363000000000     -2.234374000000000
C      -0.240528000000000      3.052618000000000      2.138899000000000
C       2.433476000000000     -1.751757000000000     -3.278297000000000
C      -1.612723000000000      2.856407000000000      1.765052000000000
C       1.150199000000000     -2.084954000000000     -3.791825000000000
C      -2.397293000000000      1.797051000000000      2.300604000000000
C       0.361662000000000     -3.131068000000000     -3.235766000000000
C      -3.362727000000000      1.148679000000000      1.432173000000000
C      -1.093398000000000     -2.944143000000000     -3.131360000000000
C      -3.886414000000000     -0.237861000000000      1.762653000000000
C      -1.785674000000000     -3.566485000000000     -2.066970000000000
C      -2.945027000000000     -0.989500000000000      2.691243000000000
C      -1.065371000000000     -4.317006000000000     -1.049619000000000
C      -2.066781000000000     -0.352643000000000      3.514012000000000
C       0.286219000000000     -4.509335000000000     -1.157386000000000
C      -0.855136000000000     -1.012106000000000      3.904198000000000
C       1.105928000000000     -4.471694000000000      0.021265000000000
C       0.076104000000000      0.037622000000000      4.210230000000000
C       2.408576000000000     -4.075528000000000     -0.431117000000000
C       1.415149000000000     -0.194681000000000      4.135878000000000
C       3.276682000000000     -3.467429000000000      0.427368000000000
C       2.324825000000000      0.825071000000000      3.623544000000000
C       4.138903000000000     -2.389707000000000     -0.026693000000000
C       1.811240000000000      1.984716000000000      2.976626000000000
C       3.945166000000000     -1.797101000000000     -1.299135000000000
C       2.528571000000000      2.506487000000000      1.817126000000000
C       4.137748000000000     -0.350207000000000     -1.413694000000000
C       1.800941000000000      3.282397000000000      0.815661000000000
C       1.253173000000000      3.176261000000000     -1.648926000000000
C       1.760715000000000      2.253327000000000     -2.625791000000000
C       3.404358000000000      0.389586000000000     -2.434285000000000
C       0.478769000000000      3.568844000000000      1.010015000000000
C      -0.089406000000000      3.315184000000000     -1.437613000000000
C       0.902088000000000      1.504022000000000     -3.456046000000000
C       2.603815000000000     -0.304945000000000     -3.365186000000000
C      -1.028791000000000      2.578734000000000     -2.280224000000000
C      -0.530397000000000      1.686819000000000     -3.309581000000000
C      -2.332204000000000      2.333768000000000     -1.774373000000000
C      -1.369692000000000      0.619903000000000     -3.738387000000000
C      -3.097286000000000      1.214709000000000     -2.155335000000000
C      -2.609244000000000      0.348437000000000     -3.107380000000000
C      -3.491384000000000      1.588533000000000      0.134562000000000
C      -1.672579000000000     -1.726402000000000     -3.611713000000000
C      -4.009801000000000      0.747561000000000     -1.032251000000000
C      -2.773190000000000     -1.106336000000000     -2.974456000000000
C      -3.891108000000000     -1.156509000000000      0.542675000000000
C      -2.886469000000000     -2.926310000000000     -1.414740000000000
C      -3.299083000000000     -2.408851000000000      0.924306000000000
C      -2.828851000000000     -3.284810000000000     -0.019640000000000
C      -2.604725000000000     -2.268113000000000      2.173813000000000
C      -1.638304000000000     -4.047611000000000      0.240567000000000
C      -1.341261000000000     -2.892954000000000      2.405199000000000
C      -0.834649000000000     -3.813273000000000      1.390883000000000
C      -0.426177000000000     -2.235425000000000      3.320658000000000
C       0.600758000000000     -4.050233000000000      1.283805000000000
C       1.012461000000000     -2.488704000000000      3.233403000000000
C       1.525195000000000     -3.393989000000000      2.207809000000000
C       1.895969000000000     -1.501802000000000      3.756552000000000
C       2.879380000000000     -3.228077000000000      1.794333000000000
C       3.214933000000000     -1.295499000000000      3.230606000000000
C       3.698536000000000     -2.147922000000000      2.262339000000000
C       3.465939000000000      0.140665000000000      3.139236000000000
C       4.458390000000000     -1.618354000000000      1.133479000000000
C       4.164111000000000      0.655776000000000      2.044054000000000
C       4.666950000000000     -0.252784000000000      1.019770000000000
C       3.722247000000000      1.850970000000000      1.418204000000000
C       4.525925000000000      0.374465000000000     -0.257497000000000
C       2.333258000000000      3.450051000000000     -0.599940000000000
C       3.012627000000000      1.737460000000000     -2.173080000000000
C       4.056145000000000      1.725408000000000     -0.007083000000000
C       3.350335000000000      2.393753000000000     -0.954210000000000
C      -3.881379000000000     -0.743129000000000     -0.766999000000000
C      -3.359500000000000     -1.643216000000000     -1.797508000000000
Cl     -5.588133000000000     -0.120150000000000      2.502703000000000
Cl     -5.782529000000000      1.171640000000000     -1.408963000000000
Cl     -0.718842000000000      5.757848000000000     -0.266514000000000
Cl      3.060906000000000      5.149310000000000     -0.820341000000000
