88

C      -0.751156000000000     -3.999191000000000      0.177802000000000
C       3.395960000000000     -2.734416000000000      1.469091000000000
C      -0.751156000000000      3.999191000000000      0.177801000000000
C       3.395960000000000      2.734416000000000      1.469091000000000
C      -0.118716000000000     -3.957826000000000     -1.105062000000000
C       2.277412000000000     -3.311554000000000      2.167966000000000
C      -0.118715000000000      3.957826000000000     -1.105063000000000
C       2.277412000000000      3.311555000000000      2.167965000000000
C       1.296246000000000     -3.810068000000000     -1.252485000000000
C       1.744746000000000     -2.665234000000000      3.254973000000000
C       1.744746000000000      2.665234000000000      3.254972000000000
C       1.296246000000000      3.810068000000000     -1.252486000000000
C       2.043116000000000     -3.881080000000000     -0.055699000000000
C       2.043116000000000      3.881080000000000     -0.055700000000000
C       1.419401000000000     -3.988548000000000      1.220250000000000
C       1.419401000000000      3.988548000000000      1.220249000000000
C       0.005715000000000     -3.951853000000000      1.377008000000000
C       0.005715000000000      3.951854000000000      1.377007000000000
C      -0.563692000000000     -3.253955000000000      2.520569000000000
C      -0.563692000000000      3.253956000000000      2.520568000000000
C      -1.834182000000000     -2.634992000000000      2.360225000000000
C      -1.834182000000000      2.634993000000000      2.360225000000000
C      -2.562036000000000     -2.707279000000000      1.125850000000000
C      -2.562036000000000      2.707279000000000      1.125849000000000
C      -2.042745000000000     -3.380790000000000      0.072862000000000
C      -2.042745000000000      3.380790000000000      0.072861000000000
C      -2.317262000000000     -2.948071000000000     -1.349519000000000
C      -2.317261000000000      2.948071000000000     -1.349519000000000
C      -1.022071000000000     -3.351342000000000     -2.020898000000000
C      -1.022071000000000      3.351342000000000     -2.020899000000000
C      -0.540800000000000     -2.669848000000000     -3.087370000000000
C      -0.540800000000000      2.669847000000000     -3.087371000000000
C       0.882939000000000     -2.604249000000000     -3.345206000000000
C       0.882939000000000      2.604248000000000     -3.345206000000000
C       1.824398000000000     -3.058333000000000     -2.387344000000000
C       1.824398000000000      3.058333000000000     -2.387345000000000
C       3.075649000000000     -2.311299000000000     -2.241855000000000
C       3.075649000000000      2.311298000000000     -2.241855000000000
C       3.769393000000000     -2.320507000000000     -0.950502000000000
C       4.533007000000000     -0.728210000000000      0.812186000000000
C       4.533007000000000      0.728210000000000      0.812186000000000
C       3.769393000000000      2.320506000000000     -0.950503000000000
C       3.272950000000000     -3.121535000000000      0.096736000000000
C       3.912747000000000     -1.460857000000000      1.844834000000000
C       3.912747000000000      1.460857000000000      1.844834000000000
C       3.272950000000000      3.121535000000000      0.096736000000000
C       3.315177000000000     -0.734166000000000      2.972504000000000
C       3.315177000000000      0.734166000000000      2.972504000000000
C       2.303416000000000     -1.399456000000000      3.702074000000000
C       2.303416000000000      1.399456000000000      3.702074000000000
C       1.224029000000000     -0.687929000000000      4.319760000000000
C       1.224029000000000      0.687930000000000      4.319759000000000
C       0.311920000000000     -2.650231000000000      3.467988000000000
C       0.311920000000000      2.650231000000000      3.467988000000000
C      -0.012842000000000     -1.424350000000000      4.115531000000000
C      -0.012842000000000      1.424351000000000      4.115531000000000
C      -2.149667000000000     -1.398572000000000      2.997784000000000
C      -2.149667000000000      1.398573000000000      2.997784000000000
C      -3.066960000000000     -0.677634000000000      2.166114000000000
C      -3.066960000000000      0.677635000000000      2.166114000000000
C      -3.431475000000000     -1.480361000000000      0.936367000000000
C      -3.431475000000000      1.480361000000000      0.936366000000000
C      -3.051501000000000     -0.721817000000000     -0.352091000000000
C      -3.051500000000000      0.721817000000000     -0.352091000000000
C      -2.547092000000000     -1.425069000000000     -1.444210000000000
C      -2.547092000000000      1.425068000000000     -1.444210000000000
C      -2.035879000000000     -0.723980000000000     -2.596422000000000
C      -2.035880000000000      0.723979000000000     -2.596422000000000
C      -1.147988000000000     -1.405326000000000     -3.492350000000000
C      -1.147987000000000      1.405325000000000     -3.492350000000000
C      -0.170504000000000     -0.699946000000000     -4.222944000000000
C      -0.170504000000000      0.699945000000000     -4.222944000000000
C       1.096306000000000     -1.426385000000000     -4.127919000000000
C       1.096306000000000      1.426384000000000     -4.127919000000000
C       2.285717000000000     -0.732213000000000     -4.002563000000000
C       2.285717000000000      0.732212000000000     -4.002563000000000
C       3.283050000000000     -1.187930000000000     -3.083780000000000
C       3.283050000000000      1.187929000000000     -3.083780000000000
C       4.518157000000000     -1.175589000000000     -0.541663000000000
C       4.518157000000000      1.175589000000000     -0.541664000000000
C       3.968506000000000     -0.000000000000000     -2.600283000000000
C       4.569794000000000     -0.000000000000000     -1.370556000000000
C      -1.220604000000000     -0.729287000000000      3.842909000000000
C      -1.220604000000000      0.729288000000000      3.842908000000000
Cl     -3.760782000000000     -3.835099000000000     -2.092252000000000
Cl     -5.229840000000000     -1.900055000000000      0.900698000000000
Cl     -5.229840000000000      1.900056000000000      0.900697000000000
Cl     -3.760782000000000      3.835099000000000     -2.092253000000000
