88

C       0.144147000000000      1.122090000000000      4.110668000000000
C      -3.133042000000000      2.043247000000000      0.903680000000000
C       2.548397000000000     -3.009174000000000     -2.373006000000000
C      -1.278354000000000     -0.884067000000000     -3.511124000000000
C       0.735421000000000      2.285066000000000      3.542296000000000
C      -2.955842000000000      1.118836000000000      2.082480000000000
C       3.107307000000000     -1.798797000000000     -2.877939000000000
C      -0.965198000000000     -2.273351000000000     -3.240068000000000
C       0.062533000000000      3.067721000000000      2.558541000000000
C      -3.251701000000000     -0.204099000000000      2.026275000000000
C      -1.644048000000000     -2.956339000000000     -2.275194000000000
C       2.317949000000000     -0.828388000000000     -3.564503000000000
C      -1.286768000000000      2.717786000000000      2.318339000000000
C       0.998178000000000     -1.229543000000000     -3.870658000000000
C      -1.902151000000000      1.587861000000000      2.933693000000000
C       0.455990000000000     -2.469802000000000     -3.421488000000000
C      -1.170267000000000      0.707313000000000      3.776618000000000
C       1.185003000000000     -3.346956000000000     -2.576093000000000
C      -1.476217000000000     -0.717034000000000      3.708931000000000
C       0.462037000000000     -4.052409000000000     -1.515187000000000
C      -0.439163000000000     -1.658255000000000      3.956476000000000
C       1.143370000000000     -4.373230000000000     -0.310781000000000
C       0.920102000000000     -1.201055000000000      4.190715000000000
C       2.510505000000000     -3.931728000000000     -0.100871000000000
C       1.199755000000000      0.136663000000000      4.279607000000000
C       3.189187000000000     -3.280577000000000     -1.096489000000000
C       2.419307000000000      0.646562000000000      3.718426000000000
C       4.072968000000000     -2.198106000000000     -0.763784000000000
C       2.150949000000000      2.025285000000000      3.406579000000000
C       4.117911000000000     -1.369174000000000     -1.935664000000000
C       2.870561000000000      2.659113000000000      2.437086000000000
C       4.430859000000000     -0.046124000000000     -1.824113000000000
C       2.234406000000000      3.609540000000000      1.538108000000000
C       3.760733000000000      0.948092000000000     -2.645767000000000
C       0.815973000000000      3.715920000000000      1.492566000000000
C       2.622106000000000      0.603856000000000     -3.411512000000000
C       0.176471000000000      3.933429000000000      0.198579000000000
C       1.540289000000000      1.587921000000000     -3.507847000000000
C      -1.203613000000000      3.496408000000000      0.004051000000000
C      -2.508360000000000      1.926843000000000     -1.471556000000000
C      -2.041218000000000      1.198313000000000     -2.588497000000000
C       0.175712000000000      1.126987000000000     -3.713945000000000
C      -1.902564000000000      2.950766000000000      1.045132000000000
C      -3.098359000000000      1.280404000000000     -0.408037000000000
C      -2.221347000000000     -0.195895000000000     -2.684299000000000
C      -0.082894000000000     -0.255407000000000     -3.926053000000000
C      -3.319469000000000     -0.139647000000000     -0.486083000000000
C      -2.909127000000000     -0.864684000000000     -1.612857000000000
C      -3.784524000000000     -0.876745000000000      0.774817000000000
C      -2.891918000000000     -2.395744000000000     -1.605380000000000
C      -3.142829000000000     -2.246696000000000      0.883954000000000
C      -2.739779000000000     -2.945636000000000     -0.205429000000000
C      -2.507312000000000     -1.138891000000000      2.825508000000000
C      -0.943533000000000     -3.841846000000000     -1.395085000000000
C      -2.435671000000000     -2.379877000000000      2.126645000000000
C      -1.600656000000000     -3.816856000000000     -0.126083000000000
C      -0.359441000000000     -2.888176000000000      3.248023000000000
C       0.489483000000000     -4.338732000000000      0.954547000000000
C       1.048493000000000     -3.175756000000000      3.037420000000000
C       1.458235000000000     -3.874956000000000      1.934301000000000
C       1.842074000000000     -2.073706000000000      3.516139000000000
C       2.673852000000000     -3.502364000000000      1.263315000000000
C       2.952623000000000     -1.572255000000000      2.781988000000000
C       3.388826000000000     -2.320081000000000      1.603230000000000
C       3.262737000000000     -0.147951000000000      2.896190000000000
C       4.129753000000000     -1.640576000000000      0.543510000000000
C       4.029043000000000      0.527610000000000      1.846578000000000
C       4.459990000000000     -0.221218000000000      0.668186000000000
C       3.900765000000000      1.941388000000000      1.727899000000000
C       4.719208000000000      0.512065000000000     -0.526503000000000
C       4.064745000000000      2.628448000000000      0.475755000000000
C       4.467492000000000      1.921550000000000     -0.634919000000000
C       3.026734000000000      3.646121000000000      0.360041000000000
C       3.857639000000000      2.186618000000000     -1.933407000000000
C       2.414953000000000      3.879394000000000     -0.871226000000000
C       2.846993000000000      3.126459000000000     -2.042967000000000
C       1.006602000000000      4.068521000000000     -0.945041000000000
C       1.699033000000000      2.836364000000000     -2.848371000000000
C      -1.771525000000000      3.266371000000000     -1.387304000000000
C      -0.895094000000000      1.866159000000000     -3.151747000000000
C       0.579623000000000      3.524706000000000     -2.238603000000000
C      -0.688144000000000      3.063182000000000     -2.420634000000000
C      -1.318558000000000     -3.250602000000000      2.263403000000000
C      -0.882822000000000     -3.998422000000000      1.089827000000000
Cl     -5.631236000000000     -0.975995000000000      0.787878000000000
Cl     -4.417203000000000     -3.039911000000000     -2.442753000000000
Cl     -4.696627000000000      3.024711000000000      1.057009000000000
Cl     -2.879232000000000      4.675885000000000     -1.874137000000000
