88

C       2.062988000000000      0.688608000000000      3.228552000000000
C      -2.430761000000000      0.821574000000000      3.701436000000000
C      -0.963222000000000     -1.899784000000000     -3.719579000000000
C      -4.483798000000000     -0.933746000000000     -1.050362000000000
C       1.834568000000000      2.025821000000000      2.782527000000000
C      -1.408547000000000     -0.036985000000000      4.239823000000000
C      -1.149859000000000     -0.532492000000000     -4.085146000000000
C      -3.904070000000000     -2.167382000000000     -1.513979000000000
C       0.567293000000000      2.662373000000000      2.932495000000000
C      -1.473644000000000     -1.390643000000000      4.022318000000000
C      -3.485344000000000     -3.106658000000000     -0.605415000000000
C      -2.287259000000000      0.212243000000000     -3.668661000000000
C      -0.388534000000000      1.959458000000000      3.704640000000000
C      -3.305060000000000     -0.535919000000000     -3.032111000000000
C      -0.137819000000000      0.654245000000000      4.207191000000000
C      -3.148712000000000     -1.917862000000000     -2.722220000000000
C       1.057941000000000     -0.053695000000000      3.897065000000000
C      -1.929814000000000     -2.611442000000000     -2.967368000000000
C       0.991827000000000     -1.487965000000000      3.657300000000000
C      -1.467341000000000     -3.593857000000000     -1.988327000000000
C       1.926241000000000     -2.056190000000000      2.747619000000000
C      -0.062246000000000     -3.770039000000000     -1.816529000000000
C       2.925905000000000     -1.262250000000000      2.092241000000000
C       0.882724000000000     -3.008860000000000     -2.572195000000000
C       2.997229000000000      0.067707000000000      2.332964000000000
C       0.453203000000000     -2.092288000000000     -3.475689000000000
C       3.479222000000000      1.047099000000000      1.286975000000000
C       1.124449000000000     -0.807840000000000     -3.595833000000000
C       2.666492000000000      2.271426000000000      1.648165000000000
C       0.161873000000000      0.089710000000000     -4.100677000000000
C       2.283329000000000      3.177766000000000      0.723584000000000
C       0.281092000000000      1.449093000000000     -3.870139000000000
C       1.043129000000000      3.886724000000000      0.872447000000000
C      -0.905789000000000      2.259622000000000     -3.609090000000000
C       0.118696000000000      3.593969000000000      1.911498000000000
C      -2.158746000000000      1.652439000000000     -3.367006000000000
C      -1.310582000000000      3.742666000000000      1.635232000000000
C      -3.037918000000000      2.264170000000000     -2.364401000000000
C      -2.269053000000000      2.914871000000000      2.377040000000000
C      -4.020529000000000      1.194322000000000      1.944774000000000
C      -4.568074000000000      0.725630000000000      0.677840000000000
C      -4.004992000000000      1.424750000000000     -1.650519000000000
C      -1.806087000000000      2.076775000000000      3.408343000000000
C      -3.470962000000000      0.294790000000000      2.882596000000000
C      -4.567563000000000     -0.642435000000000      0.343705000000000
C      -4.144594000000000      0.069945000000000     -2.009064000000000
C      -3.517339000000000     -1.144548000000000      2.599079000000000
C      -4.070679000000000     -1.615911000000000      1.322931000000000
C      -2.565107000000000     -1.958932000000000      3.254318000000000
C      -3.619450000000000     -2.857366000000000      0.819747000000000
C      -2.041052000000000     -3.147945000000000      2.644879000000000
C      -2.560534000000000     -3.589456000000000      1.450924000000000
C      -0.264350000000000     -2.149513000000000      3.759404000000000
C      -2.266606000000000     -3.856370000000000     -0.841965000000000
C      -0.613427000000000     -3.231087000000000      2.903339000000000
C      -1.688374000000000     -4.145406000000000      0.429047000000000
C       1.572139000000000     -3.136360000000000      1.886969000000000
C       0.516407000000000     -4.045407000000000     -0.539720000000000
C       2.340829000000000     -3.029076000000000      0.681331000000000
C       1.831355000000000     -3.472818000000000     -0.492081000000000
C       3.292463000000000     -1.850912000000000      0.747346000000000
C       2.174894000000000     -2.802981000000000     -1.803402000000000
C       3.017880000000000     -0.849484000000000     -0.394728000000000
C       2.503179000000000     -1.308025000000000     -1.606050000000000
C       3.124637000000000      0.566449000000000     -0.135701000000000
C       2.062577000000000     -0.371534000000000     -2.609014000000000
C       2.729333000000000      1.496505000000000     -1.098219000000000
C       2.184859000000000      1.050277000000000     -2.356996000000000
C       2.642616000000000      2.998904000000000     -0.738708000000000
C       1.369984000000000      1.947205000000000     -3.120097000000000
C       1.475507000000000      3.695315000000000     -1.410157000000000
C       0.954243000000000      3.236123000000000     -2.582800000000000
C       0.609992000000000      4.285688000000000     -0.430625000000000
C      -0.457001000000000      3.404025000000000     -2.877742000000000
C      -0.748537000000000      4.453463000000000     -0.684698000000000
C      -1.297065000000000      3.997423000000000     -1.947116000000000
C      -1.699964000000000      4.200213000000000      0.352339000000000
C      -2.594471000000000      3.442641000000000     -1.710566000000000
C      -3.476550000000000      2.495089000000000      1.742290000000000
C      -4.357946000000000      1.739192000000000     -0.303229000000000
C      -2.888511000000000      3.677846000000000     -0.304437000000000
C      -3.742824000000000      2.851242000000000      0.371362000000000
C       0.268233000000000     -3.706417000000000      1.895671000000000
C      -0.283246000000000     -4.178199000000000      0.630646000000000
Cl      5.295967000000000      1.344103000000000      1.418850000000000
Cl      5.057682000000000     -2.390706000000000      0.683141000000000
Cl      3.591054000000000     -3.629663000000000     -2.664523000000000
Cl      4.236928000000000      3.825919000000000     -1.194280000000000
