90

C      -0.025745000000000      4.277584000000000     -1.138492000000000
C      -0.382079000000000      2.710662000000000      3.208352000000000
C      -0.025763000000000     -4.277585000000000     -1.138494000000000
C      -0.382090000000000     -2.710661000000000      3.208351000000000
C      -1.522801000000000      4.005280000000000     -0.960180000000000
C       0.676813000000000      3.286667000000000      2.436493000000000
C      -1.522818000000000     -4.005273000000000     -0.960181000000000
C       0.676800000000000     -3.286671000000000      2.436491000000000
C      -2.173124000000000      3.820519000000000      0.273533000000000
C       1.894359000000000      2.640670000000000      2.329540000000000
C       1.894348000000000     -2.640680000000000      2.329539000000000
C      -2.173140000000000     -3.820510000000000      0.273532000000000
C      -1.335725000000000      3.863966000000000      1.429373000000000
C      -1.335742000000000     -3.863960000000000      1.429372000000000
C       0.123569000000000      3.950545000000000      1.303763000000000
C       0.123552000000000     -3.950546000000000      1.303762000000000
C       0.796871000000000      3.931101000000000      0.085825000000000
C       0.796855000000000     -3.931105000000000      0.085824000000000
C       2.066735000000000      3.265889000000000     -0.016818000000000
C       2.066722000000000     -3.265899000000000     -0.016819000000000
C       2.615117000000000      2.836043000000000     -1.362859000000000
C       2.615105000000000     -2.836055000000000     -1.362859000000000
C       1.494422000000000      2.690374000000000     -2.382461000000000
C       1.494411000000000     -2.690380000000000     -2.382461000000000
C       0.311599000000000      3.354592000000000     -2.294843000000000
C       0.311584000000000     -3.354594000000000     -2.294844000000000
C      -0.862410000000000      2.768762000000000     -2.837088000000000
C      -0.862421000000000     -2.768757000000000     -2.837087000000000
C      -1.978473000000000      3.310461000000000     -2.100824000000000
C      -1.978487000000000     -3.310452000000000     -2.100825000000000
C      -3.180829000000000      2.640853000000000     -2.090917000000000
C      -3.180839000000000     -2.640839000000000     -2.090918000000000
C      -3.970051000000000      2.598914000000000     -0.888512000000000
C      -3.970062000000000     -2.598897000000000     -0.888513000000000
C      -3.418827000000000      3.048387000000000      0.338052000000000
C      -3.418839000000000     -3.048372000000000      0.338051000000000
C      -3.750756000000000      2.297166000000000      1.552282000000000
C      -3.750765000000000     -2.297150000000000      1.552281000000000
C      -2.803999000000000      2.297071000000000      2.667337000000000
C      -1.420920000000000      0.705176000000000      4.013685000000000
C      -1.420923000000000     -0.705172000000000      4.013686000000000
C      -2.804009000000000     -2.297060000000000      2.667336000000000
C      -1.631549000000000      3.113813000000000      2.580646000000000
C      -0.221319000000000      1.449874000000000      3.811286000000000
C      -0.221325000000000     -1.449875000000000      3.811285000000000
C      -1.631562000000000     -3.113807000000000      2.580644000000000
C       1.044076000000000      0.724836000000000      3.671393000000000
C       1.044072000000000     -0.724841000000000      3.671391000000000
C       2.104508000000000      1.377223000000000      2.992815000000000
C       2.104500000000000     -1.377232000000000      2.992813000000000
C       3.118988000000000      0.680796000000000      2.277370000000000
C       3.118980000000000     -0.680809000000000      2.277365000000000
C       2.618609000000000      2.667652000000000      1.109455000000000
C       2.618598000000000     -2.667665000000000      1.109454000000000
C       3.627214000000000      1.513064000000000      1.110754000000000
C       3.627207000000000     -1.513079000000000      1.110754000000000
C       3.156490000000000      1.404744000000000     -1.313762000000000
C       3.156484000000000     -1.404758000000000     -1.313762000000000
C       2.617528000000000      0.688389000000000     -2.408305000000000
C       2.617523000000000     -0.688399000000000     -2.408302000000000
C       1.514353000000000      1.405694000000000     -2.989131000000000
C       1.514346000000000     -1.405699000000000     -2.989131000000000
C       0.345267000000000      0.731132000000000     -3.430900000000000
C       0.345264000000000     -0.731132000000000     -3.430897000000000
C      -0.905838000000000      1.450916000000000     -3.366225000000000
C      -0.905844000000000     -1.450911000000000     -3.366224000000000
C      -2.180546000000000      0.726754000000000     -3.342626000000000
C      -2.180549000000000     -0.726743000000000     -3.342626000000000
C      -3.319358000000000      1.400304000000000     -2.810931000000000
C      -3.319364000000000     -1.400290000000000     -2.810932000000000
C      -4.393450000000000      0.690753000000000     -2.179749000000000
C      -4.393456000000000     -0.690736000000000     -2.179753000000000
C      -4.785286000000000      1.419116000000000     -0.980649000000000
C      -4.785293000000000     -1.419096000000000     -0.980650000000000
C      -5.120999000000000      0.726411000000000      0.167455000000000
C      -5.121002000000000     -0.726390000000000      0.167455000000000
C      -4.621040000000000      1.179679000000000      1.439500000000000
C      -4.621044000000000     -1.179660000000000      1.439499000000000
C      -2.702200000000000      1.169016000000000      3.505840000000000
C      -2.702205000000000     -1.169007000000000      3.505841000000000
C      -4.435804000000000      0.000009000000000      2.256116000000000
C      -3.493337000000000      0.000006000000000      3.260864000000000
C       3.569793000000000      0.721375000000000     -0.181809000000000
C       3.569791000000000     -0.721390000000000     -0.181809000000000
Cl      3.916016000000000      4.014600000000000     -1.945437000000000
Cl      5.344557000000000      2.130442000000000      1.412598000000000
Cl      5.344547000000000     -2.130461000000000      1.412603000000000
Cl      3.916000000000000     -4.014616000000000     -1.945439000000000
Cl      0.260314000000000      6.064396000000000     -1.579919000000000
Cl      0.260291000000000     -6.064397000000000     -1.579919000000000
