90

C      -1.497137000000000      0.073505000000000      3.804683000000000
C      -2.890113000000000      3.379604000000000      1.057503000000000
C       1.486052000000000     -1.580838000000000     -3.454641000000000
C      -0.867223000000000      2.263803000000000     -3.890728000000000
C      -0.427953000000000      0.988537000000000      3.990726000000000
C      -3.546438000000000      2.254973000000000      1.676299000000000
C       2.526991000000000     -0.643636000000000     -3.170425000000000
C      -1.102164000000000      0.904718000000000     -4.319832000000000
C      -0.464867000000000      2.329598000000000      3.491219000000000
C      -4.182276000000000      1.321794000000000      0.894356000000000
C      -2.238375000000000      0.255300000000000     -3.922386000000000
C       2.361604000000000      0.753882000000000     -3.389307000000000
C      -1.703495000000000      2.743429000000000      2.962225000000000
C       1.173272000000000      1.135472000000000     -4.060250000000000
C      -2.800469000000000      1.834188000000000      2.824765000000000
C       0.164377000000000      0.200451000000000     -4.394170000000000
C      -2.684971000000000      0.450059000000000      3.133706000000000
C       0.248604000000000     -1.170891000000000     -4.013172000000000
C      -3.392374000000000     -0.520716000000000      2.294813000000000
C      -0.957161000000000     -1.867828000000000     -3.595467000000000
C      -2.987995000000000     -1.986218000000000      2.295279000000000
C      -0.827196000000000     -2.905123000000000     -2.642633000000000
C      -1.551519000000000     -2.178562000000000      2.757039000000000
C       0.446891000000000     -3.289202000000000     -2.101621000000000
C      -0.906345000000000     -1.247518000000000      3.558256000000000
C       1.571395000000000     -2.651348000000000     -2.502737000000000
C       0.493718000000000     -1.129181000000000      3.512792000000000
C       2.757651000000000     -2.463843000000000     -1.580419000000000
C       0.800553000000000      0.231166000000000      3.925988000000000
C       3.300088000000000     -1.144362000000000     -2.078161000000000
C       1.953560000000000      0.825261000000000      3.550202000000000
C       3.949141000000000     -0.280288000000000     -1.267742000000000
C       1.961540000000000      2.199718000000000      3.138251000000000
C       3.859885000000000      1.133604000000000     -1.501253000000000
C       0.761506000000000      2.950604000000000      2.998054000000000
C       3.012335000000000      1.692701000000000     -2.492994000000000
C       0.698200000000000      3.952854000000000      1.932604000000000
C       2.406427000000000      3.002089000000000     -2.233490000000000
C      -0.599046000000000      4.287644000000000      1.341743000000000
C      -1.745447000000000      4.221364000000000     -0.872842000000000
C      -1.208311000000000      3.925031000000000     -2.194156000000000
C       1.119369000000000      3.326136000000000     -2.852335000000000
C      -1.767792000000000      3.707297000000000      1.877718000000000
C      -2.848102000000000      3.507131000000000     -0.360195000000000
C      -1.773324000000000      2.921720000000000     -3.005247000000000
C       0.542344000000000      2.416986000000000     -3.766076000000000
C      -3.492362000000000      2.497531000000000     -1.205100000000000
C      -2.963006000000000      2.210548000000000     -2.530109000000000
C      -4.213848000000000      1.465525000000000     -0.545362000000000
C      -3.205473000000000      0.923230000000000     -3.069910000000000
C      -4.378250000000000      0.168864000000000     -1.091858000000000
C      -3.854811000000000     -0.107565000000000     -2.326110000000000
C      -4.150768000000000     -0.072843000000000      1.239789000000000
C      -2.204421000000000     -1.161125000000000     -3.583824000000000
C      -4.507471000000000     -0.886236000000000     -0.005442000000000
C      -3.192844000000000     -1.387958000000000     -2.602846000000000
C      -2.916460000000000     -2.561706000000000      0.879770000000000
C      -1.826594000000000     -3.116918000000000     -1.634912000000000
C      -1.692615000000000     -3.289613000000000      0.750041000000000
C      -1.185633000000000     -3.612584000000000     -0.470987000000000
C      -0.810087000000000     -2.927227000000000      1.846975000000000
C       0.300695000000000     -3.802800000000000     -0.685286000000000
C       0.583580000000000     -2.676663000000000      1.603523000000000
C       1.133995000000000     -2.965834000000000      0.306998000000000
C       1.259619000000000     -1.748667000000000      2.472047000000000
C       2.306054000000000     -2.332951000000000     -0.110798000000000
C       2.477745000000000     -1.123181000000000      2.027221000000000
C       2.985954000000000     -1.405893000000000      0.758454000000000
C       3.059363000000000      0.027170000000000      2.875974000000000
C       4.170689000000000     -0.583259000000000      0.202521000000000
C       3.702213000000000      1.092960000000000      2.020260000000000
C       4.204495000000000      0.812538000000000      0.789402000000000
C       3.079209000000000      2.369556000000000      2.266090000000000
C       4.111038000000000      1.793355000000000     -0.259256000000000
C       3.027485000000000      3.346990000000000      1.278581000000000
C       3.563003000000000      3.047735000000000     -0.028969000000000
C       1.849668000000000      4.142997000000000      1.125973000000000
C       2.729325000000000      3.657433000000000     -1.021367000000000
C      -0.674810000000000      4.656288000000000     -0.035211000000000
C       0.197451000000000      4.168263000000000     -2.166270000000000
C       1.734886000000000      4.430533000000000     -0.296557000000000
C       0.508372000000000      4.676026000000000     -0.852829000000000
C      -3.553222000000000     -2.045115000000000     -0.225161000000000
C      -3.000232000000000     -2.314775000000000     -1.542032000000000
Cl     -4.167422000000000     -2.962611000000000      3.346634000000000
Cl     -6.257048000000000     -1.510702000000000      0.098187000000000
Cl      0.776725000000000     -5.584893000000000     -0.516563000000000
Cl      3.977678000000000     -3.836528000000000     -1.748488000000000
Cl      5.747400000000000     -1.488158000000000      0.515747000000000
Cl      4.233017000000000     -0.674412000000000      4.124707000000000
