92

C      -0.424911000000000     -0.694083000000000     -3.981787000000000
C       3.322977000000000      1.511360000000000     -2.721979000000000
C      -0.424910000000000     -0.694074000000000      3.981789000000000
C       3.322978000000000      1.511367000000000      2.721975000000000
C      -0.950967000000000      0.635043000000000     -3.929493000000000
C       3.091211000000000      0.200219000000000     -3.298387000000000
C      -0.950966000000000      0.635052000000000      3.929493000000000
C       3.091212000000000      0.200227000000000      3.298386000000000
C      -0.104733000000000      1.773227000000000     -3.776066000000000
C       3.544455000000000     -0.925405000000000     -2.675701000000000
C       3.544456000000000     -0.925399000000000      2.675702000000000
C      -0.104732000000000      1.773236000000000      3.776063000000000
C       1.286432000000000      1.523696000000000     -3.855317000000000
C       1.286433000000000      1.523705000000000      3.855314000000000
C       1.810124000000000      0.207216000000000     -3.966695000000000
C       1.810125000000000      0.207225000000000      3.966694000000000
C       0.972376000000000     -0.940350000000000     -3.936125000000000
C       0.972377000000000     -0.940341000000000      3.936127000000000
C       1.434985000000000     -2.123674000000000     -3.239616000000000
C       1.434985000000000     -2.123666000000000      3.239621000000000
C       0.466485000000000     -2.966180000000000     -2.631376000000000
C       0.466485000000000     -2.966174000000000      2.631383000000000
C      -0.934586000000000     -2.681785000000000     -2.704094000000000
C      -0.934586000000000     -2.681779000000000      2.704101000000000
C      -1.365049000000000     -1.579133000000000     -3.366724000000000
C      -1.365049000000000     -1.579126000000000      3.366728000000000
C      -2.609697000000000     -0.831012000000000     -2.941710000000000
C      -2.609697000000000     -0.831005000000000      2.941712000000000
C      -2.248157000000000      0.582508000000000     -3.339811000000000
C      -2.248156000000000      0.582515000000000      3.339810000000000
C      -2.724250000000000      1.658439000000000     -2.673291000000000
C      -2.724249000000000      1.658446000000000      2.673289000000000
C      -1.930308000000000      2.846626000000000     -2.558946000000000
C      -1.930307000000000      2.846632000000000      2.558940000000000
C      -0.588933000000000      2.916398000000000     -3.019116000000000
C      -0.588932000000000      2.916405000000000      3.019110000000000
C       0.355828000000000      3.765899000000000     -2.289369000000000
C       0.355829000000000      3.765904000000000      2.289360000000000
C       1.777272000000000      3.417428000000000     -2.299602000000000
C       3.593565000000000      2.792694000000000     -0.716587000000000
C       3.593565000000000      2.792695000000000      0.716580000000000
C       1.777273000000000      3.417434000000000      2.299594000000000
C       2.227193000000000      2.330791000000000     -3.098925000000000
C       3.929695000000000      1.634590000000000     -1.437485000000000
C       3.929695000000000      1.634594000000000      1.437480000000000
C       2.227193000000000      2.330798000000000      3.098920000000000
C       4.346426000000000      0.446000000000000     -0.694932000000000
C       4.346426000000000      0.446002000000000      0.694930000000000
C       4.484668000000000     -0.865849000000000     -1.478931000000000
C       4.484669000000000     -0.865846000000000      1.478932000000000
C       4.000707000000000     -2.055864000000000     -0.678131000000000
C       4.000708000000000     -2.055864000000000      0.678135000000000
C       2.724730000000000     -2.094467000000000     -2.626571000000000
C       2.724731000000000     -2.094461000000000      2.626575000000000
C       2.988048000000000     -2.770673000000000     -1.399816000000000
C       2.988048000000000     -2.770670000000000      1.399822000000000
C       0.728745000000000     -3.634920000000000     -1.397147000000000
C       0.728745000000000     -3.634916000000000      1.397155000000000
C      -0.500884000000000     -3.766932000000000     -0.678417000000000
C      -0.500883000000000     -3.766930000000000      0.678426000000000
C      -1.656256000000000     -3.200136000000000     -1.477196000000000
C      -1.656256000000000     -3.200133000000000      1.477205000000000
C      -2.327204000000000     -2.041656000000000     -0.707181000000000
C      -2.327205000000000     -2.041655000000000      0.707187000000000
C      -2.798140000000000     -0.912180000000000     -1.410996000000000
C      -2.798139000000000     -0.912176000000000      1.410999000000000
C      -3.285955000000000      0.213283000000000     -0.705861000000000
C      -3.285953000000000      0.213285000000000      0.705862000000000
C      -3.651469000000000      1.500510000000000     -1.482046000000000
C      -3.651467000000000      1.500514000000000      1.482043000000000
C      -3.317920000000000      2.737965000000000     -0.679767000000000
C      -3.317917000000000      2.737963000000000      0.679761000000000
C      -2.367800000000000      3.549161000000000     -1.391685000000000
C      -2.367800000000000      3.549164000000000      1.391677000000000
C      -1.482326000000000      4.379388000000000     -0.720533000000000
C      -1.482325000000000      4.379389000000000      0.720523000000000
C      -0.127119000000000      4.505702000000000     -1.180151000000000
C      -0.127119000000000      4.505704000000000      1.180140000000000
C       2.578642000000000      3.711141000000000     -1.169611000000000
C       2.578642000000000      3.711144000000000      1.169601000000000
C       0.687780000000000      4.705864000000000     -0.000006000000000
C       2.008299000000000      4.314368000000000     -0.000005000000000
C       1.972628000000000     -3.503511000000000     -0.722386000000000
C       1.972629000000000     -3.503510000000000      0.722395000000000
Cl     -4.110104000000000     -1.456739000000000     -3.800598000000000
Cl     -5.431425000000000      1.448620000000000     -1.953827000000000
Cl     -5.431424000000000      1.448627000000000      1.953824000000000
Cl     -4.110105000000000     -1.456727000000000      3.800601000000000
Cl     -2.909126000000000     -4.485407000000000     -1.885526000000000
Cl     -2.909126000000000     -4.485404000000000      1.885536000000000
Cl      6.242921000000000     -1.069437000000000     -2.028980000000000
Cl      6.242921000000000     -1.069431000000000      2.028982000000000
