92

C       0.301260000000000     -0.142088000000000      3.927657000000000
C       4.398673000000000      0.262123000000000      1.712148000000000
C      -1.828858000000000      1.441717000000000     -3.575931000000000
C       2.693177000000000      1.358478000000000     -3.541736000000000
C       0.465441000000000     -1.506334000000000      3.544378000000000
C       3.515853000000000      1.110546000000000      2.597456000000000
C      -1.631272000000000      0.057802000000000     -3.866041000000000
C       1.728396000000000      2.420623000000000     -3.664035000000000
C       1.665710000000000     -1.969785000000000      2.933156000000000
C       3.180721000000000      2.386055000000000      2.261982000000000
C       1.742789000000000      3.457712000000000     -2.766334000000000
C      -0.342375000000000     -0.466938000000000     -4.182770000000000
C       2.740221000000000     -1.047515000000000      2.889042000000000
C       0.683670000000000      0.490807000000000     -4.364600000000000
C       2.598965000000000      0.296448000000000      3.332491000000000
C       0.472962000000000      1.875432000000000     -4.140120000000000
C       1.343535000000000      0.806704000000000      3.778389000000000
C      -0.764992000000000      2.375779000000000     -3.641554000000000
C       0.991847000000000      2.171421000000000      3.441477000000000
C      -0.750931000000000      3.469858000000000     -2.680952000000000
C      -0.384387000000000      2.476966000000000      3.244924000000000
C      -1.793582000000000      3.523360000000000     -1.718307000000000
C      -1.403866000000000      1.482474000000000      3.399657000000000
C      -2.854143000000000      2.552537000000000     -1.691496000000000
C      -1.075508000000000      0.215222000000000      3.748449000000000
C      -2.878802000000000      1.551485000000000     -2.599692000000000
C      -1.884109000000000     -0.974853000000000      3.278600000000000
C      -3.452836000000000      0.191443000000000     -2.270627000000000
C      -0.808769000000000     -2.032999000000000      3.174234000000000
C      -2.585954000000000     -0.704378000000000     -3.125801000000000
C      -0.878012000000000     -3.040653000000000      2.276005000000000
C      -2.297726000000000     -1.975515000000000     -2.769263000000000
C       0.318748000000000     -3.583848000000000      1.700974000000000
C      -1.035444000000000     -2.558167000000000     -3.128562000000000
C       1.601599000000000     -3.012375000000000      1.939366000000000
C      -0.004777000000000     -1.813122000000000     -3.756579000000000
C       2.603683000000000     -3.059935000000000      0.879533000000000
C       1.386549000000000     -2.148770000000000     -3.440455000000000
C       3.644749000000000     -2.036024000000000      0.844394000000000
C       4.472918000000000     -0.215694000000000     -0.696988000000000
C       4.049911000000000      0.053848000000000     -2.046425000000000
C       2.399669000000000     -1.106469000000000     -3.514522000000000
C       3.717478000000000     -1.103988000000000      1.841770000000000
C       4.415279000000000      0.744850000000000      0.270650000000000
C       3.612176000000000      1.331884000000000     -2.446693000000000
C       2.058284000000000      0.170791000000000     -4.002492000000000
C       3.997684000000000      2.103139000000000     -0.087621000000000
C       3.609279000000000      2.400320000000000     -1.462878000000000
C       3.489929000000000      2.930179000000000      0.939126000000000
C       2.729732000000000      3.494776000000000     -1.698588000000000
C       2.498410000000000      3.921162000000000      0.675790000000000
C       2.127713000000000      4.204647000000000     -0.626898000000000
C       1.922163000000000      2.954296000000000      2.705645000000000
C       0.500125000000000      4.028539000000000     -2.283620000000000
C       1.500340000000000      3.899966000000000      1.731309000000000
C       0.731606000000000      4.474753000000000     -0.953971000000000
C      -0.806496000000000      3.413822000000000      2.255465000000000
C      -1.555309000000000      3.964202000000000     -0.382937000000000
C      -2.095198000000000      3.011424000000000      1.771523000000000
C      -2.458596000000000      3.278665000000000      0.494565000000000
C      -2.584749000000000      1.775996000000000      2.497496000000000
C      -3.374678000000000      2.359031000000000     -0.283265000000000
C      -2.813047000000000      0.614847000000000      1.505287000000000
C      -3.191255000000000      0.894667000000000      0.172314000000000
C      -2.489124000000000     -0.706199000000000      1.883021000000000
C      -3.242665000000000     -0.146925000000000     -0.778155000000000
C      -2.554607000000000     -1.753979000000000      0.933767000000000
C      -2.930852000000000     -1.473531000000000     -0.397947000000000
C      -2.046739000000000     -3.164702000000000      1.314918000000000
C      -2.830880000000000     -2.574146000000000     -1.480294000000000
C      -1.388575000000000     -3.848741000000000      0.135522000000000
C      -1.748020000000000     -3.576005000000000     -1.146028000000000
C      -0.017602000000000     -4.157236000000000      0.444610000000000
C      -0.751915000000000     -3.592744000000000     -2.184672000000000
C       0.954102000000000     -4.227744000000000     -0.553761000000000
C       0.567376000000000     -3.932348000000000     -1.913686000000000
C       2.266985000000000     -3.719708000000000     -0.324849000000000
C       1.632303000000000     -3.219904000000000     -2.550511000000000
C       4.402204000000000     -1.722291000000000     -0.436683000000000
C       3.503882000000000     -1.141407000000000     -2.605482000000000
C       2.736373000000000     -3.191541000000000     -1.607568000000000
C       3.660236000000000     -2.193440000000000     -1.661374000000000
C       0.124955000000000      4.096640000000000      1.426336000000000
C      -0.267109000000000      4.388759000000000      0.051049000000000
Cl     -3.209897000000000     -1.421932000000000      4.471723000000000
Cl     -3.435545000000000     -4.160740000000000      1.997451000000000
Cl     -4.471293000000000     -3.387569000000000     -1.685645000000000
Cl     -5.239179000000000      0.074667000000000     -2.698000000000000
Cl     -4.127566000000000      2.094211000000000      3.450127000000000
Cl     -5.146037000000000      2.839003000000000     -0.115534000000000
Cl      6.106825000000000     -2.470034000000000     -0.377145000000000
Cl      6.126493000000000      0.205046000000000      2.403479000000000
