92

C       0.141611000000000      0.285476000000000      4.020340000000000
C      -3.698999000000000     -1.408773000000000      2.303772000000000
C       1.706380000000000     -1.389797000000000     -3.622739000000000
C      -2.605494000000000     -2.566869000000000     -2.931099000000000
C      -0.465540000000000      1.503659000000000      3.567956000000000
C      -2.706882000000000     -1.924559000000000      3.214856000000000
C       1.080798000000000     -0.150686000000000     -3.972160000000000
C      -1.397404000000000     -3.323351000000000     -3.126529000000000
C      -1.815951000000000      1.541266000000000      3.112201000000000
C      -2.046931000000000     -3.091731000000000      2.919059000000000
C      -1.001008000000000     -4.228239000000000     -2.172271000000000
C      -0.331590000000000     -0.042158000000000     -4.128745000000000
C      -2.563696000000000      0.359668000000000      3.304761000000000
C      -1.052414000000000     -1.261114000000000     -4.094040000000000
C      -1.989479000000000     -0.829168000000000      3.829865000000000
C      -0.423097000000000     -2.501999000000000     -3.815206000000000
C      -0.592708000000000     -0.925042000000000      4.094819000000000
C       0.958086000000000     -2.583531000000000     -3.470967000000000
C       0.102422000000000     -2.162599000000000      3.782217000000000
C       1.378837000000000     -3.532104000000000     -2.450221000000000
C       1.469539000000000     -2.084427000000000      3.398934000000000
C       2.503569000000000     -3.192280000000000     -1.646707000000000
C       2.171251000000000     -0.834192000000000      3.340507000000000
C       3.230034000000000     -1.971368000000000     -1.838962000000000
C       1.524682000000000      0.315697000000000      3.649986000000000
C       2.847343000000000     -1.101373000000000     -2.803782000000000
C       1.876040000000000      1.630240000000000      2.984958000000000
C       3.038386000000000      0.391626000000000     -2.648754000000000
C       0.530834000000000      2.319337000000000      2.974242000000000
C       1.855304000000000      0.917928000000000     -3.429088000000000
C       0.180717000000000      3.213009000000000      2.010103000000000
C       1.255527000000000      2.088618000000000     -3.115832000000000
C      -1.177235000000000      3.330465000000000      1.595232000000000
C      -0.154183000000000      2.252410000000000     -3.321778000000000
C      -2.180462000000000      2.445046000000000      2.043928000000000
C      -0.990884000000000      1.191424000000000     -3.740531000000000
C      -3.271777000000000      2.077083000000000      1.134235000000000
C      -2.368753000000000      1.152310000000000     -3.236524000000000
C      -3.927211000000000      0.859272000000000      1.288473000000000
C      -4.427608000000000     -1.276553000000000      0.013210000000000
C      -4.097271000000000     -1.545524000000000     -1.345256000000000
C      -3.039493000000000     -0.130098000000000     -3.105865000000000
C      -3.613927000000000      0.002757000000000      2.377398000000000
C      -3.958945000000000     -2.073721000000000      1.045972000000000
C      -3.356516000000000     -2.691139000000000     -1.728584000000000
C      -2.405804000000000     -1.300366000000000     -3.564502000000000
C      -3.208901000000000     -3.296724000000000      0.709932000000000
C      -2.923490000000000     -3.613695000000000     -0.688404000000000
C      -2.348394000000000     -3.826336000000000      1.697531000000000
C      -1.793139000000000     -4.426091000000000     -0.976916000000000
C      -1.152659000000000     -4.532808000000000      1.358800000000000
C      -0.877250000000000     -4.831948000000000      0.044295000000000
C      -0.640929000000000     -3.248373000000000      3.233241000000000
C       0.405902000000000     -4.372833000000000     -1.838399000000000
C      -0.083067000000000     -4.123191000000000      2.260566000000000
C       0.483210000000000     -4.736578000000000     -0.465540000000000
C       2.019763000000000     -2.956054000000000      2.411936000000000
C       2.572385000000000     -3.549047000000000     -0.266576000000000
C       3.067591000000000     -2.263884000000000      1.722725000000000
C       3.331252000000000     -2.549285000000000      0.424429000000000
C       3.259071000000000     -0.872802000000000      2.288910000000000
C       3.837597000000000     -1.494190000000000     -0.536940000000000
C       3.007343000000000      0.193342000000000      1.200296000000000
C       3.286796000000000     -0.103897000000000     -0.153426000000000
C       2.354645000000000      1.399412000000000      1.536119000000000
C       2.915145000000000      0.806676000000000     -1.165665000000000
C       1.991692000000000      2.319078000000000      0.523543000000000
C       2.275313000000000      2.022779000000000     -0.828372000000000
C       1.138046000000000      3.558946000000000      0.885101000000000
C       1.738607000000000      2.938312000000000     -1.953000000000000
C       0.174446000000000      3.901788000000000     -0.227625000000000
C       0.454919000000000      3.620225000000000     -1.531624000000000
C      -1.177825000000000      3.851240000000000      0.240007000000000
C      -0.608351000000000      3.256973000000000     -2.408965000000000
C      -2.223649000000000      3.585749000000000     -0.610347000000000
C      -1.926303000000000      3.234163000000000     -1.954770000000000
C      -3.480545000000000      2.885780000000000     -0.145495000000000
C      -2.809155000000000      2.188957000000000     -2.383957000000000
C      -4.740581000000000      0.213123000000000      0.175199000000000
C      -3.995284000000000     -0.307616000000000     -2.058494000000000
C      -3.764061000000000      1.972103000000000     -1.325454000000000
C      -4.339966000000000      0.754073000000000     -1.174087000000000
C       1.239385000000000     -3.961428000000000      1.772045000000000
C       1.528643000000000     -4.271905000000000      0.375689000000000
Cl      3.147965000000000      2.562062000000000      3.931963000000000
Cl      2.249514000000000      4.972360000000000      1.285043000000000
Cl      3.032831000000000      4.154310000000000     -2.433240000000000
Cl      4.651197000000000      0.953911000000000     -3.331219000000000
Cl      4.939596000000000     -0.641841000000000      3.006610000000000
Cl      5.676820000000000     -1.443196000000000     -0.596855000000000
Cl     -6.553287000000000      0.454283000000000      0.516621000000000
Cl     -4.854624000000000      4.122736000000000      0.139950000000000
