73

C      -1.305617966942760      1.869681120038270     -3.910767774149320
C       0.209345512760000      2.202927046601370     -3.964815791300090
C       0.961914050607620      0.884682277267550     -4.264877986683240
C      -1.483006840106880      0.364288938769560     -4.234443434598040
C      -0.090780874386200     -0.168310016688160     -4.143615154342030
C      -2.450079359868900     -0.223045806249740     -3.157540530800090
C      -1.877323010619550      2.003969611612100     -2.535334288578380
C      -2.591438954292740      0.891555141051650     -2.162437065502510
C      -1.406035158462020      2.921391559722640     -1.563606256121120
C       0.757782024813840      2.632257871733080     -2.634570393335140
C       0.009093786484030      3.243602833451870     -1.613143137113720
C       1.895997381777190      0.690152534559730     -3.089802255015020
C       1.869348997786780      1.855877273082070     -2.279589640701480
C       2.223088374273650     -0.521595160006840     -2.534407196623280
C       0.200155511549180     -1.341511222393330     -3.591469080900980
C       1.608786444596720     -1.756119003806360     -3.194719268663780
C      -1.958116121300510     -1.434062900163380     -2.398564611508400
C      -0.781750002352060     -2.053941623030660     -2.807418089874790
C      -2.461468894312040     -1.715141916821500     -1.096885273813770
C      -3.034884847430080      0.678695896928000     -0.839775850177180
C      -3.082516419150520     -0.663881193793710     -0.302119408124460
C      -2.030444393021070      2.861483771944900     -0.315345800616120
C      -2.895870685255100      1.775319480743810      0.024190424238630
C      -1.384344177125570      3.291338486872730      0.898059148884910
C       0.671906246220390      3.458832458004070     -0.388157873649210
C      -0.032709344424570      3.586729016852610      0.859622573060270
C       2.434146934515820      1.865023515975430     -0.984777691174640
C       1.924404940315710      2.835002089362160     -0.104672585149710
C       2.841516759228180     -0.559019684838270     -1.247294140798670
C       3.012503097979470      0.650353762227970     -0.480265777078360
C       2.833311249254100     -1.796484666722080     -0.545668272078700
C       1.383514936825800     -2.989730427858610     -2.275330935621870
C      -0.111491397278060     -3.002515367065080     -2.025779095709220
C       2.033482385368830     -2.876856893479120     -0.942139937428800
C      -1.883025977025420     -2.799997645209160     -0.400893966784990
C      -0.686607425744860     -3.423787556505800     -0.856467700457770
C      -1.886631798661360     -2.895304941472070      1.028963257190270
C      -3.116917659719110     -0.798939955190130      1.090428395284650
C      -2.504441588107470     -1.911054262494210      1.768440193763470
C      -2.863690467488160      1.605603279558400      1.445294729139930
C      -1.921098691094280      2.537535745366600      1.999065530765260
C      -2.991296877344250      0.334968245504530      1.970420992497500
C      -1.106116076506830      2.140101161436180      3.054446679563530
C       0.822565160674520      3.133152114569720      1.925838271442670
C       2.037882255135490      2.673566046072910      1.313081234061560
C       0.300221488231350      2.445765183348290      3.014888371378440
C       3.216289309383430      0.570365635613130      0.916066711608600
C       2.698827021478640      1.564320745436500      1.811304931565400
C       2.965220537753600     -1.843468664044530      0.888459774394590
C       3.160502617395460     -0.683583137848420      1.606313164889440
C       1.478784863251690     -3.476028132679730      0.234983463126050
C       0.120912812329610     -3.783772238771380      0.295440203754460
C      -0.637214270255100     -3.470594053517230      1.466105986178480
C       2.096925162593470     -2.869484401978010      1.388631822032020
C      -0.020506593089730     -2.960611412859830      2.609001010057830
C       1.386543102261450     -2.653107320982890      2.562532294597640
C      -1.911435542629840     -1.447524456285290      2.995803904932060
C      -2.210126234285830     -0.048564072574440      3.117939581126080
C      -1.262004998023800      0.831087891350660      3.631085380533430
C      -0.670539197299980     -1.940786858703880      3.386445178574980
C       1.013437939997700      1.321491126191520      3.569082601503330
C       2.210117841486230      0.907540732670380      2.998601264459570
C       2.505130284057040     -0.494386767186430      2.873891198293340
C       1.602149139682940     -1.448136933753430      3.324478996289140
C       0.046302900664330      0.332720233816790      3.980706941839160
C       0.334345222681510     -1.020377480788120      3.862148186538570
H      -1.855469444390570      2.508189784387360     -4.607412017004950
H       0.399413496792550      2.972472612176170     -4.716906808853760
H       1.487045909362800      0.881146505355450     -5.222857417888860
H      -3.411416190956710     -0.469434427988830     -3.623088807858710
H      -1.891071203413020      0.206103334365990     -5.236008976247290
H       2.203023464555290     -2.024782286149760     -4.073210707970260
H       1.703238689606140     -3.908625433878510     -2.782169131396850
