62

C       0.199927952892241     -0.085959650945242     -3.785042461500025
C       0.261791155815652      1.330789476991239     -3.263089585056896
C      -1.023365804648037      1.767102484963237     -2.845317728373864
C      -1.167971169476290     -0.500096865693326     -3.305570034175734
C      -1.912660553382729      0.637482096900066     -2.866546669950169
C      -1.408120820759806     -1.719454084087056     -2.726557086307322
C      -0.311137720021353     -2.601668458899667     -2.346240271638463
C       1.268984776441764     -0.923247039562226     -3.162366691984079
C       0.995765972591742     -2.176762552804548     -2.571547218541791
C       2.406700775516155     -0.356951115847502     -2.532374844655355
C       1.372452398500942      1.836091818947966     -2.632922079018687
C       2.483459482361150      1.000009787314158     -2.265259651616772
C       1.246791112107962      2.826734957584848     -1.577718462572412
C      -1.157896930757355      2.728949916991757     -1.836732030859723
C      -0.019353472611577      3.279001364828949     -1.209259369257977
C      -2.186408903837069      2.593238101388918     -0.835396425149895
C      -2.898420053429573      0.509848782528994     -1.895508201852864
C      -3.033843676870716      1.503432879843927     -0.866649826167880
C      -2.422353444222531     -1.860486446356652     -1.716172073213536
C      -3.166309507635180     -0.765363952171221     -1.308863184680106
C      -0.653777656679752     -3.261353723548591     -1.132496910142078
C      -1.968964797943529     -2.809648433159878     -0.738317400371828
C       0.308712251007198     -3.506702674816623     -0.157012218950238
C       2.006673167570581     -2.430669682686534     -1.551940315974986
C       2.878649755518903     -1.304902132027474     -1.528973845272700
C       1.665197924553267     -3.080674835643306     -0.380593745596365
C       3.389198211541700     -0.838025242172279     -0.328417102042466
C       3.016434990145553      1.475486851580880     -1.004949976117700
C       2.251738833410224      2.611686196057456     -0.614703442252193
C       3.465921596180672      0.563852481771345     -0.059854990552395
C       2.102503292263215      3.028162660837477      0.810589324318228
C      -0.308835827251681      3.492410745335631      0.200031725969806
C      -1.659052951471943      3.057910549523664      0.422030539061239
C       0.654197235986477      3.275907180584065      1.154586159484894
C      -2.013403244712365      2.413673839411133      1.592469665284808
C      -3.410320482236040      0.840018332875136      0.359630109674035
C      -3.480749802495604     -0.567431629937577      0.080908175485821
C      -2.900570485098587      1.279716012180552      1.566156147896809
C      -2.263560488575627     -2.623889528392310      0.600916313726062
C      -3.039228965694051     -1.483947108184395      1.021987747271069
C      -0.002560736339391     -3.303256558468425      1.228034702414688
C      -1.266812854695328     -2.876829818885349      1.610011108248046
C       2.193831972285553     -2.604307176316190      0.872377332895022
C       3.041322281999774     -1.506741459566946      0.902875456211047
C       1.163568293225711     -2.752163899049347      1.869376268441078
C       3.146065335282429      0.787410541338410      1.341783180909508
C       2.428121149996753      1.886954377137544      1.740816296742016
C       2.881562177608797     -0.503493626770859      1.921452354148060
C       0.300003492547038      2.590140386355047      2.350589028680334
C      -1.006765190223892      2.168631426670224      2.577525085631073
C       1.396983411741243      1.727717492503012      2.712663790804935
C      -2.444600424636888      0.330613843869022      2.545209305325834
C      -2.512552543664422     -1.025193825210009      2.277286056546232
C      -1.413242206663075     -1.886114321904802      2.638774853742651
C      -1.269361391136695      0.888099415555687      3.168405921253663
C       1.016706775122411     -1.793396529034610      2.854757642427092
C       1.896920697917954     -0.655272204266801      2.881040107520171
C       1.135230769009388      0.487553397659881      3.284812662640145
C      -0.294358497456439     -1.355409829398350      3.254787852077415
C      -0.214287462471588      0.059990778856982      3.513406439355449
Cl      0.363411511622518     -0.176602292998897     -5.604088298584285
Cl      3.148277068978298      4.501392304198952      1.117788278890944
