76

C      -3.100938000000000     -2.409082000000000     -0.763928000000000
C      -3.490012000000000     -1.225722000000000     -1.378124000000000
C      -2.727640000000000     -0.696352000000000     -2.493422000000000
C      -1.564877000000000     -1.345812000000000     -2.916778000000000
C      -2.757762000000000      0.728639000000000     -2.433984000000000
C      -3.551899000000000      1.118956000000000     -1.246825000000000
C       2.845784000000000      0.133354000000000     -2.727740000000000
C      -3.951558000000000     -0.101917000000000     -0.585460000000000
C      -3.187765000000000      2.223027000000000     -0.514720000000000
C       4.009491000000000      0.092529000000000     -1.637172000000000
C      -2.281759000000000      3.325373000000000     -1.035616000000000
C      -1.385943000000000      2.849653000000000     -2.257965000000000
C      -1.631124000000000      1.440860000000000     -2.768916000000000
C       0.234157000000000      2.580185000000000      2.330525000000000
C       0.095651000000000      2.794795000000000     -2.001188000000000
C       0.807763000000000      3.359705000000000      1.347137000000000
C       2.066120000000000      2.972526000000000      0.862545000000000
C       0.935313000000000     -1.810004000000000      2.713488000000000
C      -0.186127000000000     -0.943154000000000      3.180303000000000
C      -0.209149000000000      0.448675000000000      3.226070000000000
C       3.955267000000000      1.419439000000000     -0.816108000000000
C       2.693900000000000      2.071014000000000     -1.325869000000000
C       2.035236000000000      1.354728000000000     -2.337077000000000
C       0.701596000000000      1.665908000000000     -2.634540000000000
C      -0.389245000000000      0.778713000000000     -3.091498000000000
C      -0.352900000000000     -0.615956000000000     -3.216314000000000
C       0.792449000000000     -1.519400000000000     -2.900187000000000
C       2.094747000000000     -1.188610000000000     -2.559975000000000
C       2.757429000000000     -1.958442000000000     -1.542914000000000
C       3.661916000000000     -1.116566000000000     -0.820214000000000
C       3.696531000000000     -1.187910000000000      0.545408000000000
C       2.826599000000000     -2.101832000000000      1.220658000000000
C       4.092608000000000     -0.072486000000000      1.466856000000000
C       2.179484000000000     -3.112090000000000      0.518772000000000
C       2.144469000000000     -3.039680000000000     -0.919383000000000
C       0.858621000000000     -3.474422000000000     -1.357053000000000
C       2.993589000000000     -0.147997000000000      2.619362000000000
C       0.214107000000000     -2.738883000000000     -2.352205000000000
C      -1.217752000000000     -2.619197000000000     -2.335618000000000
C       2.219434000000000     -1.441721000000000      2.345456000000000
C      -1.963329000000000     -3.145295000000000     -1.275489000000000
C      -1.270428000000000     -3.741890000000000     -0.152270000000000
C       0.105052000000000     -3.908884000000000     -0.193546000000000
C       0.914058000000000     -3.592022000000000      0.970197000000000
C       0.867975000000000      1.394752000000000      2.833061000000000
C       2.180519000000000      1.118521000000000      2.421190000000000
C       0.322751000000000     -2.962991000000000      2.065303000000000
C       2.781440000000000      1.936695000000000      1.450596000000000
C      -1.107154000000000     -2.848174000000000      2.131953000000000
C       4.002139000000000      1.334643000000000      0.797115000000000
C      -1.427777000000000     -1.649727000000000      2.860492000000000
C      -2.617817000000000     -0.982951000000000      2.578374000000000
C      -2.640717000000000      0.446081000000000      2.642951000000000
C      -1.476259000000000      1.132158000000000      2.977014000000000
C      -1.210758000000000      2.405418000000000      2.372279000000000
C       2.012659000000000      3.028644000000000     -0.597862000000000
C       0.718421000000000      3.445536000000000     -0.969026000000000
C       0.004467000000000      4.064162000000000      0.232436000000000
C      -1.546607000000000      3.860921000000000      0.279470000000000
C      -2.003151000000000      2.894555000000000      1.361221000000000
C      -3.109205000000000      2.118064000000000      0.908249000000000
C      -3.471398000000000      0.937479000000000      1.569872000000000
C      -3.937116000000000     -0.191401000000000      0.811207000000000
C      -3.443903000000000     -1.395692000000000      1.453572000000000
C      -3.069094000000000     -2.492444000000000      0.688923000000000
C      -1.907625000000000     -3.268326000000000      1.060475000000000
H       3.242548000000000      0.232582000000000     -3.742732000000000
H       4.983959000000000     -0.022866000000000     -2.117203000000000
H       4.811024000000000      2.037169000000000     -1.097514000000000
H       4.880930000000000      1.913613000000000      1.089989000000000
H       5.091794000000000     -0.237564000000000      1.876236000000000
H       3.448192000000000     -0.171037000000000      3.614475000000000
H       0.201087000000000      5.140625000000000      0.267853000000000
H      -1.982001000000000      4.838633000000000      0.499351000000000
H      -2.900585000000000      4.138373000000000     -1.419105000000000
H      -1.574677000000000      3.558430000000000     -3.072628000000000
