76

C      -3.292252000000000     -2.581026000000000     -0.585695000000000
C      -3.775608000000000     -1.349680000000000     -1.440144000000000
C      -2.703859000000000     -0.809484000000000     -2.377700000000000
C      -1.559606000000000     -1.469163000000000     -2.751420000000000
C      -2.705991000000000      0.599445000000000     -2.399863000000000
C      -3.510820000000000      1.089712000000000     -1.329391000000000
C       2.869056000000000     -0.026829000000000     -2.756018000000000
C      -4.283653000000000     -0.042218000000000     -0.667141000000000
C      -3.157956000000000      2.262756000000000     -0.706464000000000
C       4.035681000000000      0.036414000000000     -1.672199000000000
C      -2.042928000000000      3.034847000000000     -1.198204000000000
C      -1.281048000000000      2.571183000000000     -2.280018000000000
C      -1.577638000000000      1.298349000000000     -2.858762000000000
C       0.277855000000000      2.897570000000000      2.123379000000000
C       0.142106000000000      2.749809000000000     -2.310146000000000
C       0.835678000000000      3.561840000000000      1.030858000000000
C       2.108918000000000      3.133056000000000      0.559138000000000
C       0.992507000000000     -1.458688000000000      2.826607000000000
C      -0.117441000000000     -0.551922000000000      3.239568000000000
C      -0.145588000000000      0.839459000000000      3.200122000000000
C       3.652363000000000      1.217132000000000     -0.829199000000000
C       2.714115000000000      2.039007000000000     -1.530538000000000
C       2.074707000000000      1.267055000000000     -2.557530000000000
C       0.761552000000000      1.562002000000000     -2.888058000000000
C      -0.348692000000000      0.620479000000000     -3.204531000000000
C      -0.336437000000000     -0.774133000000000     -3.123273000000000
C       0.796245000000000     -1.651879000000000     -2.725274000000000
C       2.112315000000000     -1.297825000000000     -2.407187000000000
C       2.810286000000000     -2.011670000000000     -1.401183000000000
C       4.037255000000000     -1.305978000000000     -0.880496000000000
C       4.093031000000000     -1.248509000000000      0.738631000000000
C       2.906805000000000     -1.913493000000000      1.389478000000000
C       4.139865000000000      0.147149000000000      1.432775000000000
C       2.243592000000000     -2.966554000000000      0.786362000000000
C       2.194851000000000     -3.019193000000000     -0.685524000000000
C       0.901624000000000     -3.465961000000000     -1.055310000000000
C       3.049811000000000      0.162275000000000      2.595286000000000
C       0.229640000000000     -2.817080000000000     -2.099399000000000
C      -1.203564000000000     -2.718078000000000     -2.079782000000000
C       2.281644000000000     -1.131146000000000      2.390663000000000
C      -1.935024000000000     -3.164286000000000     -1.006020000000000
C      -1.216011000000000     -3.606004000000000      0.160794000000000
C       0.158293000000000     -3.792952000000000      0.138886000000000
C       0.977818000000000     -3.377863000000000      1.267425000000000
C       0.937230000000000      1.754167000000000      2.744743000000000
C       2.229911000000000      1.434944000000000      2.353958000000000
C       0.385962000000000     -2.656316000000000      2.308449000000000
C       2.800712000000000      2.133543000000000      1.237590000000000
C      -1.045428000000000     -2.525724000000000      2.358360000000000
C       3.696369000000000      1.264795000000000      0.536536000000000
C      -1.357325000000000     -1.276184000000000      2.971178000000000
C      -2.530380000000000     -0.633262000000000      2.586105000000000
C      -2.567765000000000      0.792474000000000      2.554877000000000
C      -1.412086000000000      1.504572000000000      2.889424000000000
C      -1.146006000000000      2.727133000000000      2.198561000000000
C       2.065378000000000      3.086564000000000     -0.880716000000000
C       0.765035000000000      3.485844000000000     -1.300815000000000
C       0.003218000000000      3.865535000000000     -0.121948000000000
C      -1.363319000000000      3.636634000000000     -0.070743000000000
C      -1.974716000000000      3.123283000000000      1.136855000000000
C      -3.119000000000000      2.323406000000000      0.768552000000000
C      -3.443991000000000      1.207873000000000      1.498273000000000
C      -4.175889000000000     -0.009663000000000      0.919507000000000
C      -3.366425000000000     -1.142442000000000      1.531368000000000
C      -3.009689000000000     -2.285472000000000      0.884777000000000
C      -1.844299000000000     -3.004311000000000      1.316911000000000
H       3.266639000000000     -0.084408000000000     -3.774105000000000
H       5.001623000000000      0.196436000000000     -2.156605000000000
H       5.136108000000000      0.339505000000000      1.837440000000000
H       3.514616000000000      0.184469000000000      3.585907000000000
H      -4.613969000000000     -1.706249000000000     -2.042517000000000
H      -4.057146000000000     -3.360826000000000     -0.669978000000000
H       4.916913000000000     -1.882711000000000     -1.173642000000000
H       4.993966000000000     -1.802337000000000      1.010489000000000
H      -5.344236000000000      0.079702000000000     -0.894367000000000
H      -5.200476000000000     -0.035491000000000      1.305510000000000
