68

C       3.087589000000000      2.322735000000000     -0.727140000000000
C       3.452328000000000      1.173116000000000     -1.417838000000000
C       2.644435000000000      0.715760000000000     -2.535021000000000
C       1.480286000000000      1.392208000000000     -2.887474000000000
C       2.644435000000000     -0.715760000000000     -2.535021000000000
C       3.452328000000000     -1.173116000000000     -1.417838000000000
C      -2.943460000000000      0.000000000000000     -2.652687000000000
C       3.910844000000000      0.000000000000000     -0.699190000000000
C       3.087589000000000     -2.322735000000000     -0.727140000000000
C      -3.832366000000000      0.000000000000000     -1.401994000000000
C       1.952648000000000     -3.099613000000000     -1.170019000000000
C       1.169336000000000     -2.638780000000000     -2.234236000000000
C       1.480286000000000     -1.392208000000000     -2.887474000000000
C      -0.256239000000000     -2.793803000000000      2.218322000000000
C      -0.256240000000000     -2.793801000000000     -2.218323000000000
C      -0.866011000000000     -3.485152000000000      1.166446000000000
C      -2.160791000000000     -3.082940000000000      0.732026000000000
C      -0.874435000000000      1.623042000000000      2.821659000000000
C       0.234783000000000      0.697586000000000      3.209477000000000
C       0.234783000000000     -0.697586000000000      3.209477000000000
C      -3.752975000000000     -1.211191000000000     -0.714521000000000
C      -2.822375000000000     -2.073113000000000     -1.417271000000000
C      -2.174495000000000     -1.313567000000000     -2.467483000000000
C      -0.874434000000000     -1.623044000000000     -2.821660000000000
C       0.234784000000000     -0.697586000000000     -3.209476000000000
C       0.234784000000000      0.697586000000000     -3.209476000000000
C      -0.874434000000000      1.623044000000000     -2.821660000000000
C      -2.174495000000000      1.313567000000000     -2.467483000000000
C      -2.822375000000000      2.073113000000000     -1.417271000000000
C      -3.752975000000000      1.211191000000000     -0.714521000000000
C      -3.752978000000000      1.211193000000000      0.714520000000000
C      -2.822377000000000      2.073115000000000      1.417270000000000
C      -3.832357000000000      0.000000000000000      1.401993000000000
C      -2.160791000000000      3.082940000000000      0.732026000000000
C      -2.160790000000000      3.082939000000000     -0.732024000000000
C      -0.866011000000000      3.485151000000000     -1.166445000000000
C      -2.943463000000000      0.000000000000000      2.652681000000000
C      -0.256240000000000      2.793801000000000     -2.218323000000000
C       1.169336000000000      2.638780000000000     -2.234236000000000
C      -2.174495000000000      1.313568000000000      2.467485000000000
C       1.952648000000000      3.099613000000000     -1.170019000000000
C       1.294914000000000      3.646696000000000      0.000000000000000
C      -0.075626000000000      3.837763000000000      0.000000000000000
C      -0.866011000000000      3.485152000000000      1.166446000000000
C      -0.874435000000000     -1.623042000000000      2.821659000000000
C      -2.174495000000000     -1.313568000000000      2.467485000000000
C      -0.256239000000000      2.793803000000000      2.218322000000000
C      -2.822377000000000     -2.073115000000000      1.417270000000000
C       1.169335000000000      2.638779000000000      2.234236000000000
C      -3.752978000000000     -1.211193000000000      0.714520000000000
C       1.480285000000000      1.392208000000000      2.887474000000000
C       2.644434000000000      0.715760000000000      2.535021000000000
C       2.644434000000000     -0.715760000000000      2.535021000000000
C       1.480285000000000     -1.392208000000000      2.887474000000000
C       1.169335000000000     -2.638779000000000      2.234236000000000
C      -2.160790000000000     -3.082939000000000     -0.732024000000000
C      -0.866011000000000     -3.485151000000000     -1.166445000000000
C      -0.075626000000000     -3.837763000000000      0.000000000000000
C       1.294914000000000     -3.646696000000000      0.000000000000000
C       1.952648000000000     -3.099613000000000      1.170020000000000
C       3.087588000000000     -2.322735000000000      0.727140000000000
C       3.452328000000000     -1.173116000000000      1.417838000000000
C       3.910843000000000      0.000000000000000      0.699190000000000
C       3.452328000000000      1.173116000000000      1.417838000000000
C       3.087588000000000      2.322735000000000      0.727140000000000
C       1.952648000000000      3.099613000000000      1.170020000000000
H      -3.494808000000000      0.000000000000000     -3.600892000000000
H      -3.494816000000000      0.000000000000000      3.600884000000000
