72

C       3.251632000000000     -2.236655000000000      0.535795000000000
C       3.557589000000000     -1.127730000000000      1.315986000000000
C       2.734782000000000     -0.805997000000000      2.471919000000000
C       1.609286000000000     -1.572711000000000      2.770780000000000
C       2.659237000000000      0.615620000000000      2.590788000000000
C       3.426546000000000      1.206278000000000      1.504869000000000
C      -2.908888000000000     -0.406551000000000      2.697041000000000
C       3.947113000000000      0.121647000000000      0.693220000000000
C       2.987003000000000      2.380061000000000      0.906137000000000
C      -4.008715000000000     -0.364693000000000      1.542988000000000
C       1.817908000000000      3.060235000000000      1.416056000000000
C       1.080020000000000      2.471338000000000      2.453747000000000
C       1.463421000000000      1.197557000000000      3.003562000000000
C      -0.414059000000000      3.130286000000000     -2.180198000000000
C      -0.342943000000000      2.537423000000000      2.439274000000000
C      -1.101374000000000      3.796724000000000     -0.918811000000000
C      -2.301380000000000      3.008142000000000     -0.444999000000000
C      -0.776574000000000     -1.447574000000000     -2.900936000000000
C       0.279100000000000     -0.450486000000000     -3.220417000000000
C       0.198794000000000      0.935604000000000     -3.077356000000000
C      -3.750251000000000      0.936452000000000      0.817692000000000
C      -2.859178000000000      1.731558000000000      1.570816000000000
C      -2.185562000000000      0.937812000000000      2.571821000000000
C      -0.903339000000000      1.288268000000000      2.948511000000000
C       0.257989000000000      0.411564000000000      3.269098000000000
C       0.331737000000000     -0.975854000000000      3.151274000000000
C      -0.735903000000000     -1.908599000000000      2.681807000000000
C      -2.055736000000000     -1.634713000000000      2.359878000000000
C      -2.655832000000000     -2.327423000000000      1.244604000000000
C      -3.628070000000000     -1.492845000000000      0.615019000000000
C      -3.635308000000000     -1.373924000000000     -0.756458000000000
C      -2.673299000000000     -2.093118000000000     -1.525989000000000
C      -4.017949000000000     -0.102885000000000     -1.481002000000000
C      -1.954805000000000     -3.137514000000000     -0.945581000000000
C      -1.943469000000000     -3.256014000000000      0.488667000000000
C      -0.630726000000000     -3.642781000000000      0.892703000000000
C      -2.936192000000000      0.044470000000000     -2.637078000000000
C      -0.058174000000000     -2.996951000000000      1.986541000000000
C       1.361117000000000     -2.773971000000000      2.017082000000000
C      -2.088157000000000     -1.226280000000000     -2.519513000000000
C       2.160342000000000     -3.107950000000000      0.918414000000000
C       1.527228000000000     -3.598531000000000     -0.289090000000000
C       0.167978000000000     -3.865967000000000     -0.299911000000000
C      -0.649334000000000     -3.453550000000000     -1.426836000000000
C      -0.951276000000000      1.751996000000000     -2.639081000000000
C      -2.213361000000000      1.361987000000000     -2.324111000000000
C      -0.091667000000000     -2.638128000000000     -2.410077000000000
C      -2.903676000000000      2.015703000000000     -1.192650000000000
C       1.326064000000000     -2.414184000000000     -2.428863000000000
C      -3.752940000000000      1.065552000000000     -0.560651000000000
C       1.562616000000000     -1.101204000000000     -2.973582000000000
C       2.695477000000000     -0.397718000000000     -2.577313000000000
C       2.619034000000000      1.026576000000000     -2.452131000000000
C       1.409628000000000      1.672027000000000     -2.722588000000000
C       1.063476000000000      2.861022000000000     -2.011124000000000
C      -2.241571000000000      2.828427000000000      0.957251000000000
C      -0.971738000000000      3.272966000000000      1.435502000000000
C      -0.231723000000000      3.814128000000000      0.337197000000000
C       1.129085000000000      3.685010000000000      0.311731000000000
C       1.816308000000000      3.260993000000000     -0.926687000000000
C       2.980238000000000      2.501362000000000     -0.540077000000000
C       3.417650000000000      1.435516000000000     -1.321758000000000
C       3.941490000000000      0.235102000000000     -0.699764000000000
C       3.538736000000000     -0.901864000000000     -1.509071000000000
C       3.241931000000000     -2.121132000000000     -0.911083000000000
C       2.142751000000000     -2.920809000000000     -1.411275000000000
H      -3.359587000000000     -0.510665000000000      3.687721000000000
H      -5.024401000000000     -0.449029000000000      1.937839000000000
H      -5.037879000000000     -0.120368000000000     -1.874231000000000
H      -3.407752000000000      0.104368000000000     -3.621761000000000
H      -1.389060000000000      4.812247000000000     -1.206199000000000
H      -0.562138000000000      3.824865000000000     -3.013622000000000
