72

C       2.843613000000000      2.600033000000000     -0.851409000000000
C       3.328747000000000      1.439413000000000     -1.438816000000000
C       2.599380000000000      0.814066000000000     -2.527074000000000
C       1.379063000000000      1.345314000000000     -2.949985000000000
C       2.755449000000000     -0.598760000000000     -2.432413000000000
C       3.609515000000000     -0.884923000000000     -1.253335000000000
C      -2.882708000000000     -0.495668000000000     -2.687868000000000
C       3.902169000000000      0.384592000000000     -0.626809000000000
C       3.377484000000000     -1.999958000000000     -0.488000000000000
C      -3.997041000000000     -0.529484000000000     -1.548505000000000
C       2.506604000000000     -3.163297000000000     -0.949655000000000
C       1.589138000000000     -2.830156000000000     -2.221251000000000
C       1.691811000000000     -1.413241000000000     -2.746007000000000
C       0.021202000000000     -2.585920000000000      2.431188000000000
C       0.099213000000000     -2.944008000000000     -1.991471000000000
C      -0.465589000000000     -3.415339000000000      1.419428000000000
C      -1.779873000000000     -3.176117000000000      0.928308000000000
C      -1.092991000000000      1.740990000000000      2.675644000000000
C       0.103133000000000      0.991917000000000      3.161403000000000
C       0.254183000000000     -0.388554000000000      3.272450000000000
C      -3.562661000000000     -1.643969000000000     -0.623675000000000
C      -2.531010000000000     -2.408269000000000     -1.255397000000000
C      -1.964201000000000     -1.672783000000000     -2.341822000000000
C      -0.617175000000000     -1.873272000000000     -2.639797000000000
C       0.394098000000000     -0.879969000000000     -3.083815000000000
C       0.232069000000000      0.506021000000000     -3.217535000000000
C      -0.982229000000000      1.317677000000000     -2.911372000000000
C      -2.248875000000000      0.891736000000000     -2.552451000000000
C      -2.980847000000000      1.647748000000000     -1.563311000000000
C      -3.826525000000000      0.779191000000000     -0.811337000000000
C      -3.851674000000000      0.881350000000000      0.562175000000000
C      -3.032870000000000      1.854463000000000      1.209017000000000
C      -4.055298000000000     -0.303385000000000      1.478383000000000
C      -2.469829000000000      2.891898000000000      0.469492000000000
C      -2.443354000000000      2.786396000000000     -0.965635000000000
C      -1.197733000000000      3.308730000000000     -1.426216000000000
C      -2.992084000000000     -0.094941000000000      2.647848000000000
C      -0.503742000000000      2.599952000000000     -2.405574000000000
C       0.931747000000000      2.601999000000000     -2.402208000000000
C      -2.343535000000000      1.257515000000000      2.329984000000000
C       1.641372000000000      3.221728000000000     -1.368945000000000
C       0.911956000000000      3.788632000000000     -0.254604000000000
C      -0.472917000000000      3.837596000000000     -0.284750000000000
C      -1.241053000000000      3.481361000000000      0.894284000000000
C      -0.742258000000000     -1.446503000000000      2.928477000000000
C      -2.059983000000000     -1.305823000000000      2.528679000000000
C      -0.588734000000000      2.930017000000000      1.995127000000000
C      -2.577022000000000     -2.196006000000000      1.516754000000000
C       0.845601000000000      2.940480000000000      2.050495000000000
C      -3.586820000000000     -1.541392000000000      0.746798000000000
C       1.274531000000000      1.793978000000000      2.806428000000000
C       2.515155000000000      1.224180000000000      2.527341000000000
C       2.668169000000000     -0.193466000000000      2.637995000000000
C       1.576022000000000     -0.963154000000000      3.022418000000000
C       1.410691000000000     -2.277370000000000      2.458615000000000
C      -1.757912000000000     -3.295036000000000     -0.503806000000000
C      -0.432582000000000     -3.613423000000000     -0.911727000000000
C       0.386464000000000     -3.789628000000000      0.309178000000000
C       1.714370000000000     -3.460822000000000      0.319272000000000
C       2.247898000000000     -2.722561000000000      1.422167000000000
C       3.304811000000000     -1.864685000000000      0.940291000000000
C       3.542408000000000     -0.641107000000000      1.564427000000000
C       3.888801000000000      0.506562000000000      0.768957000000000
C       3.292252000000000      1.677137000000000      1.384557000000000
C       2.818238000000000      2.718459000000000      0.597239000000000
C       1.597887000000000      3.402116000000000      0.962054000000000
H      -3.314614000000000     -0.623415000000000     -3.684431000000000
H      -5.000626000000000     -0.670075000000000     -1.958310000000000
H      -5.075586000000000     -0.384870000000000      1.861949000000000
H      -3.468566000000000     -0.071289000000000      3.631611000000000
H       3.130058000000000     -4.018407000000000     -1.225766000000000
H       1.884635000000000     -3.533510000000000     -3.006823000000000
