74

C      -3.451865000000000     -1.980852000000000     -0.525541000000000
C      -3.690809000000000     -0.846247000000000     -1.290536000000000
C      -2.863548000000000     -0.570637000000000     -2.452891000000000
C      -1.800919000000000     -1.411654000000000     -2.775898000000000
C      -2.688934000000000      0.846858000000000     -2.554237000000000
C      -3.403192000000000      1.477914000000000     -1.457672000000000
C       2.791504000000000     -0.566580000000000     -2.728386000000000
C      -3.982787000000000      0.423059000000000     -0.649788000000000
C      -2.879135000000000      2.617448000000000     -0.852863000000000
C       3.942748000000000     -0.645532000000000     -1.630023000000000
C      -1.663605000000000      3.210002000000000     -1.363159000000000
C      -0.976161000000000      2.576193000000000     -2.397685000000000
C      -1.456583000000000      1.346931000000000     -2.967664000000000
C       0.582375000000000      2.915211000000000      2.022537000000000
C       0.461300000000000      2.517671000000000     -2.386816000000000
C       1.233938000000000      3.423623000000000      0.928728000000000
C       2.626696000000000      2.975283000000000      0.521949000000000
C       0.671346000000000     -1.543061000000000      2.879235000000000
C      -0.308191000000000     -0.458572000000000      3.213503000000000
C      -0.146832000000000      0.916292000000000      3.122171000000000
C       4.085532000000000      0.761298000000000     -0.969811000000000
C       2.919226000000000      1.526561000000000     -1.547176000000000
C       2.169394000000000      0.798964000000000     -2.506765000000000
C       0.907453000000000      1.253562000000000     -2.897024000000000
C      -0.311657000000000      0.476662000000000     -3.247552000000000
C      -0.486881000000000     -0.902560000000000     -3.161574000000000
C       0.516088000000000     -1.917182000000000     -2.723835000000000
C       1.855418000000000     -1.736987000000000     -2.411304000000000
C       2.409786000000000     -2.469909000000000     -1.306591000000000
C       3.434779000000000     -1.689805000000000     -0.681812000000000
C       3.474715000000000     -1.603370000000000      0.681774000000000
C       2.489744000000000     -2.295674000000000      1.457434000000000
C       4.027477000000000     -0.446916000000000      1.460890000000000
C       1.693363000000000     -3.276890000000000      0.875349000000000
C       1.652617000000000     -3.367115000000000     -0.561300000000000
C       0.312667000000000     -3.659484000000000     -0.952259000000000
C       2.925644000000000     -0.217613000000000      2.582659000000000
C      -0.227945000000000     -2.962191000000000     -2.032517000000000
C      -1.627781000000000     -2.639266000000000     -2.040642000000000
C       1.991404000000000     -1.420894000000000      2.482880000000000
C      -2.431468000000000     -2.926626000000000     -0.933089000000000
C      -1.819424000000000     -3.475350000000000      0.259426000000000
C      -0.482640000000000     -3.841175000000000      0.249494000000000
C       0.376809000000000     -3.507603000000000      1.372342000000000
C       1.132236000000000      1.769600000000000      2.894278000000000
C       2.308482000000000      1.112754000000000      2.192729000000000
C      -0.106657000000000     -2.665030000000000      2.375126000000000
C       2.978034000000000      1.680079000000000      1.183390000000000
C      -1.503257000000000     -2.332215000000000      2.407053000000000
C       4.123692000000000      0.865597000000000      0.626864000000000
C      -1.636263000000000     -1.013655000000000      2.968635000000000
C      -2.722288000000000     -0.224304000000000      2.599317000000000
C      -2.546683000000000      1.188871000000000      2.497277000000000
C      -1.290278000000000      1.730724000000000      2.767329000000000
C      -0.845899000000000      2.892604000000000      2.040704000000000
C       2.411356000000000      2.659552000000000     -0.955060000000000
C       1.175141000000000      3.172171000000000     -1.379386000000000
C       0.470425000000000      3.744911000000000     -0.247845000000000
C      -0.917271000000000      3.752061000000000     -0.236893000000000
C      -1.607209000000000      3.378922000000000      0.966071000000000
C      -2.840042000000000      2.715447000000000      0.595651000000000
C      -3.325983000000000      1.669783000000000      1.369162000000000
C      -3.944957000000000      0.518794000000000      0.744502000000000
C      -3.612876000000000     -0.652986000000000      1.536316000000000
C      -3.412315000000000     -1.882332000000000      0.921476000000000
C      -2.368302000000000     -2.766408000000000      1.397277000000000
H       3.190307000000000     -0.652108000000000     -3.743872000000000
H       4.887824000000000     -0.952187000000000     -2.083826000000000
H       5.013863000000000      1.213929000000000     -1.328367000000000
H       5.061726000000000      1.373538000000000      0.874472000000000
H       4.993667000000000     -0.694617000000000      1.906269000000000
H       3.363181000000000     -0.157572000000000      3.586084000000000
H       3.395350000000000      3.738265000000000      0.707397000000000
H       1.469562000000000      2.138408000000000      3.874227000000000
