74

C      -3.469981000000000     -2.316041000000000     -0.591761000000000
C      -3.842203000000000     -1.045181000000000     -1.441519000000000
C      -2.724563000000000     -0.594506000000000     -2.372194000000000
C      -1.637852000000000     -1.346081000000000     -2.745894000000000
C      -2.610783000000000      0.809050000000000     -2.391841000000000
C      -3.377213000000000      1.363257000000000     -1.323583000000000
C       2.895305000000000     -0.261938000000000     -2.755461000000000
C      -4.240894000000000      0.297264000000000     -0.664676000000000
C      -2.930127000000000      2.501764000000000     -0.697670000000000
C       4.029194000000000     -0.300556000000000     -1.637498000000000
C      -1.755799000000000      3.182232000000000     -1.187573000000000
C      -1.031585000000000      2.658337000000000     -2.267485000000000
C      -1.427649000000000      1.412765000000000     -2.846153000000000
C       0.549238000000000      2.846650000000000      2.125906000000000
C       0.400294000000000      2.722945000000000     -2.296290000000000
C       1.156820000000000      3.473383000000000      1.038799000000000
C       2.396910000000000      2.956615000000000      0.565505000000000
C       0.909624000000000     -1.569698000000000      2.832460000000000
C      -0.124128000000000     -0.570293000000000      3.231264000000000
C      -0.035861000000000      0.820103000000000      3.191258000000000
C       3.819166000000000      0.964875000000000     -0.837032000000000
C       2.924983000000000      1.830697000000000     -1.534208000000000
C       2.211104000000000      1.093452000000000     -2.546468000000000
C       0.923763000000000      1.486099000000000     -2.871310000000000
C      -0.257909000000000      0.637180000000000     -3.189844000000000
C      -0.362467000000000     -0.755373000000000     -3.120729000000000
C       0.695870000000000     -1.730505000000000     -2.744415000000000
C       2.030309000000000     -1.493119000000000     -2.455278000000000
C       2.654920000000000     -2.257480000000000     -1.402284000000000
C       3.660342000000000     -1.474831000000000     -0.760396000000000
C       3.710288000000000     -1.434213000000000      0.615935000000000
C       2.759183000000000     -2.177622000000000      1.375067000000000
C       4.139647000000000     -0.210940000000000      1.393952000000000
C       2.005176000000000     -3.178635000000000      0.759890000000000
C       1.953145000000000     -3.221135000000000     -0.679433000000000
C       0.624680000000000     -3.569507000000000     -1.064450000000000
C       3.091492000000000     -0.105073000000000      2.588416000000000
C       0.021522000000000     -2.853497000000000     -2.101304000000000
C      -1.392178000000000     -2.625589000000000     -2.082576000000000
C       2.216575000000000     -1.352985000000000      2.427018000000000
C      -2.167832000000000     -3.014540000000000     -1.011226000000000
C      -1.497942000000000     -3.525691000000000      0.149943000000000
C      -0.142578000000000     -3.838878000000000      0.127497000000000
C       0.708426000000000     -3.496571000000000      1.256178000000000
C       1.115707000000000      1.645845000000000      2.735692000000000
C       2.380328000000000      1.232664000000000      2.345588000000000
C       0.191888000000000     -2.719778000000000      2.291186000000000
C       3.020013000000000      1.909544000000000      1.245408000000000
C      -1.217265000000000     -2.460288000000000      2.343640000000000
C       3.867570000000000      1.004917000000000      0.538446000000000
C      -1.417980000000000     -1.186814000000000      2.957235000000000
C      -2.535558000000000     -0.447738000000000      2.579730000000000
C      -2.455485000000000      0.975181000000000      2.554908000000000
C      -1.243284000000000      1.587372000000000      2.887416000000000
C      -0.882341000000000      2.789931000000000      2.203634000000000
C       2.348647000000000      2.917258000000000     -0.873641000000000
C       1.078895000000000      3.410048000000000     -1.290062000000000
C       0.349371000000000      3.845997000000000     -0.110840000000000
C      -1.030746000000000      3.725712000000000     -0.059196000000000
C      -1.679649000000000      3.257807000000000      1.146934000000000
C      -2.885711000000000      2.554959000000000      0.777523000000000
C      -3.298416000000000      1.466302000000000      1.503350000000000
C      -4.129563000000000      0.315858000000000      0.922115000000000
C      -3.417802000000000     -0.883231000000000      1.528669000000000
C      -3.163242000000000     -2.050575000000000      0.879346000000000
C      -2.062557000000000     -2.869066000000000      1.304939000000000
H       3.314248000000000     -0.328150000000000     -3.763472000000000
H       5.030223000000000     -0.379613000000000     -2.069608000000000
H       5.170290000000000     -0.266356000000000      1.754178000000000
H       3.582816000000000     -0.105040000000000      3.565458000000000
H      -5.287858000000000      0.507122000000000     -0.890743000000000
H      -5.152312000000000      0.374968000000000      1.309398000000000
H      -4.705060000000000     -1.325692000000000     -2.049618000000000
H      -4.299850000000000     -3.025818000000000     -0.678933000000000
