68

C      -3.986753000000000     -0.109674000000000     -0.785793000000000
C      -3.986680000000000     -0.109502000000000      0.785763000000000
C      -3.445291000000000      1.261693000000000      1.150395000000000
C      -3.445701000000000      1.261656000000000     -1.150925000000000
C      -3.246599000000000      2.063574000000000     -0.000251000000000
C      -2.443832000000000      1.152700000000000     -2.102186000000000
C      -2.942821000000000     -1.015888000000000     -1.396340000000000
C      -2.194002000000000     -0.278523000000000     -2.329614000000000
C      -2.388669000000000     -2.136160000000000     -0.744599000000000
C      -2.943179000000000     -1.015863000000000      1.396688000000000
C      -2.388663000000000     -2.135966000000000      0.744984000000000
C      -2.443697000000000      1.152959000000000      2.101907000000000
C      -2.194070000000000     -0.278260000000000      2.329700000000000
C      -1.349848000000000      2.078001000000000      2.164951000000000
C      -2.179087000000000      2.967077000000000     -0.000250000000000
C      -1.332826000000000      3.089772000000000      1.162740000000000
C      -1.349894000000000      2.077689000000000     -2.165320000000000
C      -1.332787000000000      3.089601000000000     -1.163272000000000
C      -0.084381000000000      1.639439000000000     -2.761916000000000
C      -0.958768000000000     -0.738703000000000     -2.834008000000000
C       0.098246000000000      0.227280000000000     -3.145700000000000
C      -1.291015000000000     -2.732746000000000     -1.399946000000000
C      -0.624256000000000     -2.071511000000000     -2.487957000000000
C      -0.294113000000000     -3.514499000000000     -0.693126000000000
C      -1.291021000000000     -2.732511000000000      1.400444000000000
C      -0.294128000000000     -3.514330000000000      0.693711000000000
C      -0.958852000000000     -0.738262000000000      2.834183000000000
C      -0.624261000000000     -2.071123000000000      2.488298000000000
C      -0.084380000000000      1.639911000000000      2.761667000000000
C       0.098201000000000      0.227801000000000      3.145646000000000
C       1.074439000000000      2.400284000000000      2.478756000000000
C      -0.087455000000000      3.655739000000000      0.725630000000000
C      -0.087437000000000      3.655654000000000     -0.726243000000000
C       1.077467000000000      3.383654000000000      1.408162000000000
C       1.074436000000000      2.399856000000000     -2.479132000000000
C       1.077483000000000      3.383386000000000     -1.408702000000000
C       2.393379000000000      1.827357000000000     -2.522685000000000
C       1.409644000000000     -0.277244000000000     -3.263077000000000
C       2.562616000000000      0.516212000000000     -2.925465000000000
C       0.740897000000000     -2.527322000000000     -2.523280000000000
C       0.958586000000000     -3.427504000000000     -1.409469000000000
C       1.733147000000000     -1.657082000000000     -2.924585000000000
C       2.170808000000000     -3.396941000000000     -0.725223000000000
C       0.958584000000000     -3.427271000000000      1.410052000000000
C       0.740898000000000     -2.526967000000000      2.523745000000000
C       2.170805000000000     -3.396828000000000      0.725800000000000
C       1.409599000000000     -0.276709000000000      3.263152000000000
C       1.733117000000000     -1.656605000000000      2.924859000000000
C       2.393369000000000      1.827788000000000      2.522411000000000
C       2.562566000000000      0.516691000000000      2.925391000000000
C       2.334453000000000      3.284496000000000      0.699364000000000
C       2.334479000000000      3.284385000000000     -0.699902000000000
C       3.174909000000000      2.353476000000000     -1.414590000000000
C       3.174889000000000      2.353704000000000      1.414220000000000
C       4.046273000000000      1.514933000000000     -0.726082000000000
C       4.046253000000000      1.515052000000000      0.725852000000000
C       3.541760000000000     -0.332892000000000     -2.270673000000000
C       3.027128000000000     -1.682822000000000     -2.273216000000000
C       3.231688000000000     -2.516774000000000     -1.172424000000000
C       4.247646000000000      0.148241000000000     -1.171267000000000
C       3.231665000000000     -2.516565000000000      1.172857000000000
C       3.027108000000000     -1.682447000000000      2.273515000000000
C       3.541721000000000     -0.332508000000000      2.270744000000000
C       4.247614000000000      0.148436000000000      1.171271000000000
C       3.911801000000000     -1.996387000000000      0.000173000000000
C       4.407703000000000     -0.694136000000000      0.000072000000000
Cl     -5.592346000000000     -0.456139000000000     -1.575220000000000
Cl     -5.592682000000000     -0.454439000000000      1.575261000000000
