68

C       0.240148225223130     -0.090770850004817     -3.742640151049400
C       0.290484172249973      1.442963259225615     -3.468056111592548
C      -1.040448508934087      1.769269696675043     -2.824386198903851
C      -1.120310287847451     -0.490563929510149     -3.232044626792652
C      -1.896011025349523      0.637117926166274     -2.814181485356599
C      -1.367721379152114     -1.700120133051405     -2.682496875611092
C      -0.286407340909784     -2.724537568809424     -2.468449261158499
C       1.276597463508222     -0.860238889001469     -2.955832937965096
C       1.037940152211363     -2.038231973364088     -2.382729889009761
C       2.681916448113183     -0.390620071872174     -2.642577058953523
C       1.373368046723375      1.733455300589419     -2.499858824229114
C       2.442478773343470      0.984169102088738     -2.148560468994682
C       1.204638159184985      2.816914231886129     -1.521812695141767
C      -1.187962668793962      2.707723483820897     -1.834486497677651
C      -0.022315137610561      3.279972384844817     -1.178773933411832
C      -2.196541260196771      2.583800955859846     -0.819983255432202
C      -2.890287505883013      0.514576836981743     -1.856163921257424
C      -3.059402561694776      1.505566345320423     -0.832440952529250
C      -2.398088203900427     -1.839977750669468     -1.686921001836321
C      -3.154897164279962     -0.756225057917088     -1.277018418616692
C      -0.637740966282911     -3.240380178559090     -1.109540065900774
C      -1.942997719838443     -2.775612231390608     -0.714156168463188
C       0.321904678966061     -3.461948895355034     -0.189300293386996
C       2.257113449567430     -2.605754308122066     -1.694915137327842
C       3.238062520752973     -1.373234871441892     -1.576938521159609
C       1.825972222590998     -3.316012388720875     -0.383593316649249
C       3.259305030414714     -0.704836569963741     -0.261591029550968
C       2.983834941244613      1.560426255223188     -0.918259334319317
C       2.218366914215153      2.638639889368367     -0.532303121050434
C       3.419632648602607      0.626321524496693      0.020719652055641
C       2.063883995229778      3.090578803768549      0.877668223643629
C      -0.333370612221737      3.513681286735436      0.232489825557232
C      -1.681174224582943      3.067410494735847      0.438444379159339
C       0.610464032512612      3.317894628494365      1.206244443812404
C      -2.047161797293345      2.436010262966999      1.614959727670009
C      -3.441353525524093      0.853057151056109      0.389985803740622
C      -3.504759016720033     -0.557223772481805      0.108309530253504
C      -2.938984452987763      1.304428569832003      1.598126279357890
C      -2.274901714370693     -2.589692858137530      0.614138391544817
C      -3.061918593046749     -1.464802977896977      1.049937300290581
C      -0.018452234650657     -3.244944087425714      1.196896943154821
C      -1.274767001904485     -2.830329332867945      1.601870778929646
C       2.146690054649976     -2.540333475967449      0.865233101083688
C       2.923175587573109     -1.430460624428609      0.928804762976026
C       1.114309443877475     -2.685585497690834      1.849004278934176
C       3.068225420875264      0.845342978470838      1.427809115530730
C       2.374767060523669      1.947506539066785      1.811709612018299
C       2.779407046841995     -0.444133136458712      1.968461536744145
C       0.245163341514041      2.635435639664555      2.409913019062579
C      -1.059515121844243      2.207566016035915      2.628549762878518
C       1.338944017432912      1.783346779221110      2.785575189934413
C      -2.494857636737540      0.358491155475429      2.582789195120152
C      -2.555523142122124     -0.995877534932117      2.312872870115320
C      -1.447468369500332     -1.857841719687993      2.649346816876095
C      -1.322801265012248      0.922980940318902      3.214404219645288
C       0.961791912476021     -1.745499003058955      2.861259669171540
C       1.824978328950003     -0.605313303203828      2.932974848758324
C       1.072552441075017      0.537264228871344      3.341919922834256
C      -0.338146265220318     -1.319327132178645      3.268973819030401
C      -0.274529308384912      0.097702181554573      3.563609269873331
Cl      0.398186004989510     -0.531424619768534     -5.474286316263950
Cl     -0.322467957704595     -4.025371798339140     -3.716418522627669
Cl      0.534746752133443      2.460869098961793     -4.935483645733993
Cl      2.572285533995888     -4.958221614075565     -0.289287271691897
Cl      4.964458822343302     -1.874287913841959     -1.766220050264727
Cl      3.711024569338700     -0.411950895903134     -4.116505702083507
Cl      3.095662556860214      4.562057774068251      1.154856056482082
Cl      2.957713369574623     -3.741056452299623     -2.909494122076394
