62

C       0.217146602389616     -0.074328733102232     -3.753413658316620
C       0.284534791703446      1.344264666506359     -3.246937234526348
C      -1.011413382594792      1.765527876589688     -2.839831129485423
C      -1.154447728408744     -0.492969841313975     -3.287189366484178
C      -1.905306939640498      0.644247683523543     -2.856715986081122
C      -1.397583364123674     -1.714596472796469     -2.715061005074050
C      -0.303147446669482     -2.603072113714470     -2.335337934925874
C       1.271353590615745     -0.913343973579398     -3.128514269288523
C       0.999894556745018     -2.185134332994827     -2.551436034675932
C       2.391837333272892     -0.361609523328580     -2.503133733340626
C       1.397271989885530      1.871674266852148     -2.642130549793294
C       2.466659214469266      1.017254508762043     -2.255915228283875
C       1.345690007352496      3.063430182132007     -1.719237487696205
C      -1.154218368559961      2.728029089408681     -1.829517247081403
C      -0.032039751978322      3.283650114613996     -1.210449943381049
C      -2.201011045320490      2.586591310697382     -0.830462658536665
C      -2.901050277262074      0.508792203402874     -1.894288582462239
C      -3.051604280064835      1.504400044168395     -0.863496604422863
C      -2.416544075857249     -1.860262983203542     -1.710819497153050
C      -3.164167748735297     -0.764544223173519     -1.307958117131268
C      -0.651048371573512     -3.266531749347608     -1.123433689454710
C      -1.964054127904816     -2.809093187777589     -0.733450805825649
C       0.309734022121381     -3.516459742453812     -0.148713537647400
C       2.006644674016638     -2.449802597807329     -1.541351087842999
C       2.871158530111292     -1.309767637954338     -1.511380297037436
C       1.670599341993563     -3.099701014033943     -0.370935238922278
C       3.386819908229496     -0.860907754889888     -0.316478175152138
C       3.006539882852320      1.465133808172077     -1.005364093689681
C       2.265824193956320      2.621915396188979     -0.609438241815675
C       3.452274306273386      0.553819552915371     -0.053404798327783
C       1.966003991018226      2.804546559077854      0.716102837628186
C      -0.319121922750045      3.481638818989486      0.169215014925871
C      -1.683660074397614      3.058654983775175      0.416559502107425
C       0.643349209079141      3.253592618114944      1.138297098684398
C      -2.020013145793549      2.428019820205769      1.597673427971399
C      -3.418508951737779      0.844318582167256      0.364337891727897
C      -3.478905209382737     -0.565563140870487      0.084069320922429
C      -2.904639192195749      1.291412571015435      1.572104206815908
C      -2.256110393694016     -2.617396304574553      0.605885530457381
C      -3.028499705383819     -1.474650799372825      1.022950132837737
C       0.000467975044538     -3.307595152898919      1.236882421238151
C      -1.259535368068193     -2.868273221488612      1.613558577048815
C       2.202978369283448     -2.634191836414344      0.884718430394864
C       3.054382473753758     -1.540872995706680      0.910376060472633
C       1.170375488003366     -2.759839189127267      1.878673860289515
C       3.153733469656538      0.752160854978597      1.326870975909719
C       2.414142075263152      1.861821559551817      1.704688617866260
C       2.902929360361029     -0.533245538275779      1.926728309286208
C       0.298591092062576      2.593824790619329      2.353947903030801
C      -1.008494699540977      2.182375881387152      2.593794412858560
C       1.398042972831242      1.729491713884008      2.710653166861845
C      -2.434816806292931      0.343988901915802      2.547881525063834
C      -2.497208600275780     -1.011891619963246      2.277424905590300
C      -1.403060125056187     -1.874418966468128      2.639902507079332
C      -1.262291844825685      0.897714437455818      3.180535305769641
C       1.030467868113000     -1.793002177051938      2.859398721143458
C       1.913496715676300     -0.657979498458855      2.884428419053051
C       1.145776305006449      0.495025278390028      3.283903782484269
C      -0.279447289717494     -1.342840972893530      3.253590055951102
C      -0.206959996859489      0.065536087202814      3.523625617866828
Cl      0.363140441473306     -0.169352849974441     -5.575348465672690
Cl      1.950818337332910      4.590808610241048     -2.527463247736485
