69

C      -1.309382121998280      1.861414029568440     -3.894904004348840
C       0.199774925462530      2.212503890848920     -3.981624786842430
C       0.962761876875420      0.890136386637500     -4.303863946438750
C      -1.340362743643640      0.363351407535660     -3.958369553495470
C      -0.090182385905010     -0.174357720800860     -4.187649034368120
C      -2.207162305157960     -0.179665200604800     -2.999538176433840
C      -1.963256765986860      2.080325144268530     -2.558805060723380
C      -2.649422172146580      0.913354301653520     -2.168329807067720
C      -1.454140204203660      2.947844545549690     -1.580575568620760
C       0.739166279177610      2.623427684339820     -2.648036341232470
C      -0.018416679232480      3.225583001240060     -1.630576138617560
C       1.909411275710350      0.701640211112780     -3.137076271311150
C       1.858336205453690      1.834611033120900     -2.304486234431260
C       2.253985596538410     -0.542276199945500     -2.579957517571460
C       0.193955585189560     -1.404036575198470     -3.624481640180260
C       1.472611049515030     -1.663366640708830     -2.991422403383880
C      -1.977395838401760     -1.455614919124760     -2.436832292584840
C      -0.809015734159870     -2.115119567317780     -2.895887317461650
C      -2.478476100397420     -1.738587689127650     -1.106659518344230
C      -3.072351210456500      0.681219255393720     -0.843934819161200
C      -3.073205900822610     -0.669719934025560     -0.319508596892160
C      -2.063218270707660      2.864660572902440     -0.315378168639920
C      -2.928577828558030      1.780892698515580      0.025267973664350
C      -1.397841283518390      3.280861911633570      0.892754146911680
C       0.650276022652500      3.427054776338000     -0.407127872885030
C      -0.043165728498940      3.567828967723940      0.843901686216940
C       2.432118880359490      1.842813963730190     -1.008230496958920
C       1.908567885178570      2.804661061274180     -0.130202328862460
C       2.893356950505490     -0.580429300391800     -1.273129378856150
C       3.038409229619610      0.639749232259400     -0.505492149541360
C       2.893405342969050     -1.799356287989910     -0.567140392544890
C       1.281651140948300     -2.761233504515770     -2.115365744554230
C      -0.131585233223730     -3.056815785178470     -2.060603287520750
C       2.038891482162760     -2.886078927337360     -0.962405376287970
C      -1.917748491282080     -2.831765435803710     -0.420199980218470
C      -0.705720767411350     -3.465917483765980     -0.880903556317680
C      -1.898018456240630     -2.907416272976940      1.006746876667280
C      -3.113101783386760     -0.806757595040640      1.079448745719860
C      -2.505871984419690     -1.914671732410830      1.750930640552310
C      -2.875649613212820      1.599884230052380      1.444987386694100
C      -1.925425655328210      2.529459218675340      1.996597185043000
C      -2.992299607305650      0.327828514192900      1.964093204293840
C      -1.105735873637370      2.131893326915320      3.046164935265090
C       0.817816411235430      3.117711109025490      1.904756812143400
C       2.031328453286200      2.653308350302650      1.286131305870610
C       0.303200118153240      2.435507558785960      2.998636012845170
C       3.229471956322670      0.558990238236350      0.890452706618100
C       2.701028884543540      1.553701589448510      1.786472857937170
C       2.994026522436510     -1.854036851057430      0.861481845519840
C       3.179819400965410     -0.691199925612460      1.583290412630120
C       1.478227549871190     -3.483494100431410      0.218881525089170
C       0.116363045630790     -3.776217478305260      0.262036862576690
C      -0.640671246233820     -3.468889048286170      1.440186060646330
C       2.106946591794480     -2.876522273031970      1.359471558096770
C      -0.016243609631730     -2.959316981096710      2.571947204826910
C       1.392145035695420     -2.655320242364030      2.528970051373000
C      -1.906043372923210     -1.453811886591720      2.977443815160760
C      -2.207769625546890     -0.056172367674330      3.108424609014680
C      -1.257695813257600      0.822064960557920      3.621459327641890
C      -0.664714166951840     -1.944056875723540      3.361451601198330
C       1.019188679587530      1.312736125932210      3.549206040700080
C       2.215816328735190      0.898912973680880      2.974268080189220
C       2.513692318718510     -0.501134958347690      2.847477635242030
C       1.608171718720350     -1.452863808202890      3.295059787379060
C       0.052985211067340      0.325179520405000      3.962782552297860
C       0.342026177713570     -1.027862720968980      3.837094744254310
H      -1.872588696643330      2.355445180340290     -4.690136023191400
H       0.373541384645600      2.990620276826090     -4.727355524673750
H       1.483112592812030      0.897116561370650     -5.264452444328550
