69

C      -1.193710396136110      1.744137062354600     -3.705239535790240
C       0.136292895485580      2.033495656508780     -3.747227895833410
C       0.961739136315810      0.897914830745660     -4.283764979248970
C      -1.504023789003270      0.361458340412130     -4.205921325706660
C      -0.089422639780900     -0.243605160758770     -4.506973393789810
C      -2.233822511767840     -0.184186699215940     -2.999176984857420
C      -1.950268377362620      2.069126357261230     -2.553603667177380
C      -2.653232193358870      0.882681697471560     -2.166420570803390
C      -1.429156422400810      2.936445642440650     -1.561638218285170
C       0.757563285135700      2.658247965473400     -2.639089429875930
C      -0.015748690316150      3.243949418372270     -1.606259224329330
C       1.923405734421550      0.720268656318220     -3.130419545503990
C       1.911481513384080      1.875790172691830     -2.310527546794520
C       2.264064025053260     -0.511947105221860     -2.579101326435560
C       0.186004478225990     -1.380436982535720     -3.617023986027220
C       1.430038731609800     -1.609430225860000     -2.982533073495300
C      -1.998416917999800     -1.439301083890660     -2.444536030563050
C      -0.810063168768450     -2.096791053634130     -2.911813637715040
C      -2.481521688779280     -1.728325202424260     -1.102952743995690
C      -3.071060298364900      0.672897840881110     -0.837158219867590
C      -3.075256773944100     -0.670035434077860     -0.311404036345770
C      -2.056951699732010      2.863816368729840     -0.303471863312830
C      -2.925419565518560      1.779192795707810      0.031781761889500
C      -1.396788603432980      3.286299443572250      0.902333200651320
C       0.660085018912040      3.454940183774440     -0.389248108299790
C      -0.041942028614820      3.581062542747540      0.859560907903710
C       2.457917870610150      1.875793811280220     -1.011706759777280
C       1.918857565830710      2.833123820266380     -0.121151010171750
C       2.903390393326220     -0.556772596308830     -1.272953044865070
C       3.050796519230850      0.662761448094710     -0.504802049370890
C       2.895407476261640     -1.777011390845500     -0.568469532484590
C       1.262151781815690     -2.727211819242730     -2.102209138365130
C      -0.140684122062260     -3.032415497912320     -2.057921763902290
C       2.027383696734530     -2.859329028083880     -0.967934916220570
C      -1.925367096762280     -2.825828921518530     -0.416278884202170
C      -0.712205907389250     -3.455359571757850     -0.881446806659380
C      -1.902807516444910     -2.904413212142540      1.008342697076810
C      -3.116819080637110     -0.808004881643080      1.092555237154260
C      -2.510872231204830     -1.914824687231700      1.760342060374690
C      -2.875197396657330      1.598804474413060      1.448609135285960
C      -1.925321945141540      2.530185307589920      2.003875402538760
C      -2.994015408503610      0.326975715461220      1.972956980148570
C      -1.106827728811460      2.133420407389040      3.051749799959870
C       0.818038989451360      3.127036629675020      1.917268009201090
C       2.033472453535840      2.666744993129260      1.293643464154220
C       0.302808002744090      2.440103667835260      3.007247809246590
C       3.230351481602070      0.572898853961190      0.892176578563950
C       2.700806341488030      1.565953040349490      1.793172664576020
C       2.993348512517580     -1.839195423891950      0.853772503970280
C       3.179896304391140     -0.676729235200950      1.580685954172520
C       1.475021302706320     -3.469837073912120      0.213095644081970
C       0.113758406179710     -3.765996092398400      0.256070352571140
C      -0.641884232680580     -3.463679165568750      1.438155253718770
C       2.106705289806590     -2.865690488810190      1.351383140662870
C      -0.014584338702220     -2.953581750938040      2.565869398786870
C       1.393442068427020     -2.647248624103250      2.521418440296610
C      -1.906753044943520     -1.453845546128390      2.985066061633820
C      -2.209123201036120     -0.055602421813370      3.116898221116600
C      -1.257214699267940      0.822297291931120      3.627514752697410
C      -0.662528718859590     -1.939992360395290      3.362232268148030
C       1.018206614349320      1.317342751379590      3.555680192711280
C       2.215976701900280      0.907131645895630      2.977198846234400
C       2.513906583442600     -0.492077541467600      2.845506820684800
C       1.608902805812420     -1.445815046318320      3.290523900958380
C       0.053579590644500      0.328652900538140      3.966441640415160
C       0.344156120226530     -1.025786097697650      3.836631888913430
H       1.500310186755930      1.112818198367180     -5.208785643769560
H      -2.137848044092330      0.321293508542800     -5.093929761868930
H      -0.052827683887780     -0.563267973494410     -5.550740655996080
