69

C      -1.333167636915670      1.887430937071520     -3.955178705460260
C       0.184580740282250      2.194053897794350     -3.940267014699430
C       0.868759893648380      0.846552354098650     -4.072730003441810
C      -1.355923892118230      0.378494367697380     -3.973211573647060
C      -0.084755297768560     -0.185009512465430     -4.193043550465410
C      -2.161584408523300     -0.157354204852690     -2.966083658033480
C      -2.159166133739580      2.244339990744920     -2.692837132832670
C      -2.653648315434050      0.895422741961670     -2.173871972630370
C      -1.425946981993780      2.945253397987560     -1.568115120150720
C       0.748665583836690      2.637371998554260     -2.624787381058970
C      -0.019681239204640      3.223064766934900     -1.604307918342590
C       1.896702783154730      0.702726086259580     -3.146783116251120
C       1.884796912263200      1.883158777044010     -2.304942578341160
C       2.257916821800580     -0.553955288191270     -2.580375945582560
C       0.204207863956220     -1.429726788451250     -3.633121375587800
C       1.458494600278410     -1.652502918646140     -2.978828672333890
C      -1.948383425381580     -1.466381844616050     -2.425305624553750
C      -0.806667774881210     -2.143048788699270     -2.897367441915670
C      -2.454561809910910     -1.747557084587350     -1.104382940452490
C      -3.053875275934700      0.674535560445870     -0.858729317470400
C      -3.044952804959940     -0.677508096605510     -0.323896792970580
C      -2.037530237105610      2.868616470643510     -0.329600647673230
C      -2.942346955893490      1.783352043480670      0.021401593944750
C      -1.375126870824300      3.267375413429230      0.881134806435460
C       0.669690245438730      3.442579823123230     -0.390951350461050
C      -0.023943497962330      3.572825844094160      0.852635255168310
C       2.453589839077070      1.866490203026410     -1.014575554216450
C       1.927805495015340      2.821888924958940     -0.124658333363290
C       2.903847919787700     -0.581861198285160     -1.280914016162030
C       3.050153529523990      0.645904177937200     -0.511891665927270
C       2.895560872058880     -1.798994152386610     -0.570835371428790
C       1.277234444885190     -2.772186653511730     -2.105303490625040
C      -0.128951949891500     -3.080671651824950     -2.060349398171090
C       2.035803724558130     -2.888114625707520     -0.962919138858810
C      -1.909580369453930     -2.854510813750290     -0.416486445977900
C      -0.703748374868880     -3.489006739452730     -0.874760237914120
C      -1.894508341611940     -2.925945797091720      1.012195420960100
C      -3.100215119712610     -0.815431118243670      1.073730139973220
C      -2.499260854919050     -1.928750151595800      1.750159698120250
C      -2.869734921787920      1.593610426457620      1.421245459016790
C      -1.912804085432490      2.518691515334140      1.980691621304570
C      -2.988254577430290      0.315887276429300      1.954499857337610
C      -1.099361361082460      2.125159365220690      3.032188933559060
C       0.833535047623240      3.124071441461520      1.914552808362300
C       2.047203486593040      2.661127031821240      1.293402158345120
C       0.309919105616050      2.433063597287150      2.998171401519950
C       3.230689183047050      0.559475576689200      0.879045802177390
C       2.707163720447630      1.555311199694920      1.785185487397030
C       2.995284915015730     -1.855094942196090      0.855034221229100
C       3.178841551898260     -0.691200325522450      1.574356861395940
C       1.480765063204790     -3.490400860790640      0.221326935236030
C       0.121686264058310     -3.790214826817980      0.265710712113010
C      -0.635853788207680     -3.483510094540240      1.446640930695930
C       2.110614105064590     -2.879624633610460      1.357302971206610
C      -0.010130852058020     -2.967483927927500      2.572916898804830
C       1.397203766304440     -2.659337064647820      2.527314420150800
C      -1.900537085825300     -1.462666225565040      2.974197574463760
C      -2.203924596372240     -0.062234124830140      3.097348576859870
C      -1.253765846530180      0.814515856760260      3.613720529664840
C      -0.659891860521270     -1.949965695517570      3.361635298101270
C       1.021944105276920      1.309367210328420      3.546622100731020
C       2.218789999399260      0.896693485876250      2.968422125153190
C       2.515327985656440     -0.502550354257040      2.839095393030300
C       1.611305706398470     -1.454876447711860      3.291258657168770
C       0.054326406045310      0.321143844800330      3.957954535853480
C       0.346603530609390     -1.033079776079920      3.835235371958920
H      -1.795304340087310      2.324104604697620     -4.843461744335910
H       0.456681614188850      2.905613945472290     -4.724854174848840
H      -3.014657978286360      2.875050536218970     -2.966474985181650
