70

C      -1.188756528463150      1.734607843543370     -3.692971524259400
C       0.138355169900620      2.041151546744620     -3.746210407281640
C       0.952792548668680      0.888096163912590     -4.276988385904970
C      -1.507330125544810      0.365673646040340     -4.240249813628930
C      -0.103951252113970     -0.194339473734980     -4.229079797528630
C      -2.485619211435700     -0.224262290459820     -3.167637419043070
C      -1.934534813266000      2.034149896639900     -2.528700894020090
C      -2.673240450201160      0.898606882074690     -2.169433938842110
C      -1.416097917636410      2.930009667819430     -1.547437231610030
C       0.764746829890260      2.658145137524000     -2.633164219153000
C      -0.008103426152350      3.247372820645260     -1.597905677142590
C       1.920695449618120      0.707697087014020     -3.118631241893980
C       1.915419757846610      1.887934826115630     -2.305247417317480
C       2.242160265546810     -0.495507674181870     -2.561910636599750
C       0.179040453776440     -1.347027318000210     -3.630721240945610
C       1.576646515494720     -1.732692670887020     -3.176151724479820
C      -1.975635556742630     -1.431983601174770     -2.412431966634900
C      -0.816424453707670     -2.052946705202260     -2.846199162297250
C      -2.476923075219300     -1.722806008772470     -1.100179689807090
C      -3.065576654819380      0.680967320607680     -0.845627036945710
C      -3.088990581010450     -0.667606488006930     -0.303290552614120
C      -2.044423507697960      2.868117948945030     -0.297635027353430
C      -2.905538395868020      1.780176681784100      0.032564906370040
C      -1.388652457900690      3.294067430330150      0.910825394959720
C       0.666643798426700      3.467330586050340     -0.381940114334870
C      -0.036267054952640      3.589370817242600      0.867905392232550
C       2.452206381407040      1.885107066670170     -1.006233977403000
C       1.922245645864880      2.846559257330960     -0.113802036460110
C       2.868518313920260     -0.550334246791970     -1.262501128020940
C       3.029482637337870      0.666483761506850     -0.495780810995560
C       2.897249681332850     -1.778072689188180     -0.571393949732510
C       1.273504816584460     -2.754230406328190     -2.119622659922220
C      -0.125990320805030     -2.995327460432320     -2.036307859784510
C       2.020806963326580     -2.869078871419980     -0.979708422482010
C      -1.911450961913430     -2.816347310151870     -0.408481007640060
C      -0.711225880474880     -3.444804392377000     -0.864363592479520
C      -1.901884395846560     -2.906341373983800      1.021400661097510
C      -3.117574386637540     -0.802134459322920      1.088774058546120
C      -2.506070826494120     -1.914983526375570      1.764251598302440
C      -2.864772335955150      1.601931908201080      1.450238992860210
C      -1.919020475843700      2.534316847417690      2.009238716779750
C      -2.989237979137590      0.331776732558370      1.973375085565380
C      -1.100591762617890      2.136348644123890      3.056777631160250
C       0.824051539993440      3.134122936324470      1.926387559161110
C       2.038766178192370      2.676064095552760      1.302905621461910
C       0.307385915324460      2.444589594563300      3.014932561942010
C       3.226887386859570      0.578175544475840      0.896187148144680
C       2.704868636106570      1.574548921000580      1.799939660730940
C       2.989467029206290     -1.835434229196000      0.844304730129990
C       3.175271147189400     -0.671538238864850      1.577680596906790
C       1.464231462137240     -3.459495205847240      0.208473315839640
C       0.108243890659330     -3.771835550981510      0.265900453470840
C      -0.644630530374790     -3.471633241841260      1.450109808343580
C       2.100835530185210     -2.859092214473540      1.345411981017320
C      -0.012740985039460     -2.955699425683730      2.574539351007140
C       1.394899913417670     -2.645947236058860      2.520698806707310
C      -1.902250285144040     -1.452436397100840      2.984898261152300
C      -2.202964070968070     -0.053532570057760      3.114894331095070
C      -1.251208286737440      0.822347809814600      3.628353794562570
C      -0.658092431458190     -1.941898084745420      3.366265920326540
C       1.022693128557010      1.319218418789180      3.560428548704600
C       2.218207506083620      0.910457577356750      2.980674001174890
C       2.515180766927020     -0.490832732886750      2.843657567304160
C       1.612857508250550     -1.445317656701180      3.291836684977290
C       0.058019493737610      0.327598709220300      3.969519886264800
C       0.349412388189210     -1.025455414202310      3.840241933992320
H       1.445201677503150      1.022701261954290     -5.241412925544310
H       2.190320781748900     -2.131864815916140     -3.990571547584410
H      -1.958861132134090      0.355005677370170     -5.234210814312520
H      -3.435500393683260     -0.492641838844450     -3.643596701681910
