70

C      -1.309073897951050      1.859689177334820     -3.886248863708120
C       0.197686878279230      2.206718558744060     -3.976243286110680
C       0.959265484089460      0.882783495686830     -4.302789969572790
C      -1.336004605169830      0.361562804258400     -3.942068293203150
C      -0.087957791267400     -0.185864451401720     -4.188347356279560
C      -2.198313321787830     -0.172452463734420     -2.982951227057750
C      -1.965253202947640      2.087752240402190     -2.551110077477530
C      -2.651390430407350      0.924075327298170     -2.157457858081390
C      -1.457050075982530      2.956653959753040     -1.572951269096540
C       0.734789494796350      2.617476416372110     -2.639294969036150
C      -0.022208980089760      3.234472517932960     -1.622867152845970
C       1.876663799380710      0.672921714192170     -3.113427076167600
C       1.844726210111660      1.840415187497100     -2.292715265110830
C       2.215323878571100     -0.531299450542940     -2.567397543477360
C       0.195151789884990     -1.416517704572440     -3.643173689914320
C       1.593980196600780     -1.789892927897570     -3.190595651623000
C      -1.960915782741110     -1.438318275283020     -2.415711802772700
C      -0.779304050839930     -2.084467921456290     -2.871625195446580
C      -2.470741647184090     -1.727075449022190     -1.092773935009870
C      -3.074453203573740      0.690602625967560     -0.834122526584260
C      -3.073602443159600     -0.660393416921670     -0.308667134724870
C      -2.066844831598330      2.874120768690820     -0.306561771132740
C      -2.932365064820490      1.790266516993130      0.035482399112630
C      -1.400324837391380      3.287383487491600      0.900027326365410
C       0.646129307925050      3.437484001179700     -0.401702042855360
C      -0.047579286856870      3.576587196385750      0.852584428523530
C       2.413653122546260      1.847636223258040     -1.002785643858910
C       1.901140311142150      2.817679578130460     -0.124294108766180
C       2.847544780912680     -0.579992363483120     -1.265137028664230
C       3.007226966090780      0.639600216244520     -0.499956599760900
C       2.897671304507630     -1.801878959628810     -0.571692302839760
C       1.290312864832350     -2.805172971304790     -2.124092333032500
C      -0.110928852434510     -3.035632740634860     -2.039670860421120
C       2.029114699585320     -2.903306837881480     -0.975156864006210
C      -1.918935118820940     -2.824844371565750     -0.410168803561400
C      -0.707865625174640     -3.462614917863800     -0.868429150770190
C      -1.907611449069870     -2.906545218740780      1.015877292691050
C      -3.119117001948750     -0.800380269072110      1.088880375475320
C      -2.512425214968490     -1.910816900702470      1.759037167340570
C      -2.880740984671960      1.606804170586890      1.454684830347440
C      -1.927766964269460      2.534342824568810      2.005270799003850
C      -2.997309794243940      0.334332026901620      1.973053622118710
C      -1.107248523297710      2.136002166247190      3.051868190419960
C       0.814004564760080      3.126298184297490      1.912542053657190
C       2.027743442256690      2.662708118231010      1.293071837085400
C       0.300981577357980      2.441041982624950      3.005845087012020
C       3.216963084043620      0.562406070446720      0.890537263709580
C       2.695835637892000      1.563122892711590      1.790556298248930
C       2.987347545297130     -1.849959272220300      0.847256106082320
C       3.170537288678840     -0.684517822017370      1.577115740022010
C       1.465368744513730     -3.478339878074440      0.213142873762790
C       0.103823385463890     -3.780020396878720      0.265340531458340
C      -0.650653397783240     -3.471284962647070      1.447399196110550
C       2.096676666702430     -2.870855648242990      1.349592408673060
C      -0.021491748565250     -2.956134281391920      2.571719787650050
C       1.387721422495560     -2.650626245309700      2.521871963238450
C      -1.909905834123190     -1.450475510794220      2.983093411290010
C      -2.210493835406210     -0.051893200142640      3.115446227742310
C      -1.258687264034570      0.823859625508920      3.626820737821930
C      -0.667121813402340     -1.940892331890660      3.363457820406170
C       1.017115715855120      1.316932689039100      3.553806070975230
C       2.212534329627840      0.903827120332900      2.975912223951920
C       2.509099235996530     -0.497130567583730      2.842866291824780
C       1.605335308523690     -1.449824290949680      3.291059560729250
C       0.051749620821860      0.327729256562580      3.966150881083080
C       0.341060755862070     -1.025495490940390      3.836670395874680
H      -1.873924885972230      2.347506916848920     -4.684492865470210
H       0.373655549835100      2.985502930418710     -4.720857519023950
H       1.499362724928080      0.901416896523550     -5.250643488082850
H       2.229469987405260     -2.180084332983050     -3.991418107196930
