70

C      -1.332652346698680      1.884848592393290     -3.948507890035670
C       0.185296597135720      2.186896792367640     -3.933934014583810
C       0.872224882028160      0.841025608422900     -4.073004354103920
C      -1.350987103322850      0.375283746428700     -3.957546184945380
C      -0.079088395190430     -0.190906825430970     -4.194251550963510
C      -2.143847578424390     -0.160272510499640     -2.960554690856630
C      -2.166437744415330      2.249049833027330     -2.690944075756160
C      -2.641530937476370      0.900767019073020     -2.146138174097250
C      -1.434065206414480      2.931883127519910     -1.554061053207800
C       0.748840648658540      2.624657078390920     -2.617724445370700
C      -0.021109763249690      3.201349790886200     -1.595595599158570
C       1.902197978846680      0.697152375509310     -3.149667243491230
C       1.888842616112720      1.875975391598020     -2.304225981402060
C       2.265106148617300     -0.559941317504500     -2.582622968024920
C       0.213022452125630     -1.434987386543890     -3.636245589082420
C       1.471108626752870     -1.659722688354910     -2.981933616457740
C      -1.926805751336180     -1.462140177825630     -2.421766810641900
C      -0.792993945868170     -2.149018536570930     -2.902298791751230
C      -2.428638826282220     -1.736246629443260     -1.100514666554640
C      -3.043516010113860      0.681085929100980     -0.869463123737750
C      -3.017019887278350     -0.661048416497450     -0.322870988462780
C      -2.046082458856010      2.875561806894370     -0.328706591583180
C      -3.183490268572450      1.916462182601280      0.007919782937300
C      -1.369212341862300      3.230806098413780      0.871989413625670
C       0.672381855402670      3.421250299368830     -0.388934396560850
C      -0.018700941954440      3.546550264236810      0.850657374111510
C       2.461607025829400      1.857716459040580     -1.014520163665180
C       1.938143560979400      2.812295057958710     -0.124143736139260
C       2.910885749604840     -0.588513888171920     -1.281442557576830
C       3.059706748904800      0.639957667260790     -0.511983101107190
C       2.902834446087900     -1.803916424632080     -0.572368810262390
C       1.290060068851980     -2.779786537940310     -2.109474300776060
C      -0.116825627759390     -3.088053069251660     -2.064015797081910
C       2.045942424434860     -2.895407389469800     -0.964677078123930
C      -1.896529687623580     -2.849566570149620     -0.418112510992170
C      -0.692130190521860     -3.493893655920070     -0.879436302567610
C      -1.886356700801990     -2.920425401037740      1.005163669699250
C      -3.101917427470080     -0.811805486640140      1.067606097301250
C      -2.494037944430310     -1.913048369137730      1.737355121845190
C      -2.897230778003380      1.610789040918890      1.455550142241590
C      -1.910532610771940      2.494659782178090      1.978405063527310
C      -2.980791878860430      0.339821210111530      1.956484887085600
C      -1.087262053647680      2.116883991398370      3.038715362164420
C       0.841909466393270      3.109316491748060      1.913691539086170
C       2.058379613803510      2.652818335343260      1.293284809357010
C       0.321607088695770      2.424840709579630      3.000827048328560
C       3.241693650082680      0.553867052384270      0.879593374267780
C       2.721537518569050      1.548993418835960      1.786882599534930
C       3.001148069246520     -1.859748470796330      0.855703956513090
C       3.187711308406310     -0.697296234316840      1.574639924960620
C       1.488678763675420     -3.495187805673980      0.219448527355850
C       0.128854778374370     -3.793589343088480      0.262710819602740
C      -0.631580925784230     -3.480650904134070      1.441958345734850
C       2.116604087067050     -2.883353077730720      1.356314982769460
C      -0.006228273834190     -2.965722485748450      2.568699729037050
C       1.401153113356930     -2.661667669887660      2.525664183846900
C      -1.890987183390300     -1.450295127813990      2.962497722604680
C      -2.188882541829460     -0.051878120081630      3.089649362584830
C      -1.240586842273200      0.817759127163940      3.620826090619980
C      -0.655596946599430     -1.945000717699020      3.354426119548070
C       1.036941548831570      1.305530422875080      3.553707829547670
C       2.232082325381290      0.891247888231560      2.971490293346370
C       2.524658225338510     -0.507671385016880      2.840481073869720
C       1.618005795278120     -1.458687575746950      3.290858745717050
C       0.068155541481250      0.319317279134490      3.966426378101170
C       0.354356714049880     -1.033272667878520      3.834156508165120
H      -1.791873867111160      2.314422483075760     -4.841765679230770
H       0.458184494853950      2.902379084898880     -4.714888155231000
H      -3.021739571686650      2.872536499121520     -2.973488969097580
H      -4.172753370108950      2.366447461919450     -0.135658567281070
