70

C      -1.293320181267630      1.870419537818960     -3.905492745536360
C       0.220416685013980      2.226810028609110     -3.980810067895770
C       0.971333024436580      0.901493914387520     -4.290835367123400
C      -1.339938445580300      0.376069377274790     -4.005270455900120
C      -0.102444495547490     -0.138990375189780     -4.148171502526080
C      -2.428763758876100     -0.234463110476350     -3.166990329399870
C      -1.904362004660510      2.022646986469210     -2.541900338193190
C      -2.610446693784660      0.891296775275840     -2.173330702212290
C      -1.413176968704890      2.922087927503730     -1.568377999018320
C       0.764639694007550      2.636590462086660     -2.647397184865660
C       0.007052836924140      3.232939455850060     -1.621250493605820
C       1.930078223447280      0.716027530607410     -3.130288950967480
C       1.884510265200580      1.860403407690100     -2.301081295501710
C       2.258025940591840     -0.513734689777790     -2.580490273586100
C       0.204105080190840     -1.399113995113690     -3.607443752147780
C       1.439403216671470     -1.637023360832140     -2.988343229935190
C      -1.976440258256420     -1.483643146631050     -2.433252286685840
C      -0.823497251053910     -2.117735616566450     -2.868355559252570
C      -2.475567115410790     -1.757512026370190     -1.111628165300730
C      -3.036868688785480      0.662322809462920     -0.851912868442660
C      -3.072291092410650     -0.686330345598730     -0.319038658581990
C      -2.034346423868670      2.851532371564810     -0.318564184357100
C      -2.895988666312340      1.760577345088830      0.016102560700450
C      -1.384703597561190      3.281281667416910      0.892264986202680
C       0.671558595464240      3.445963181314260     -0.399073323821830
C      -0.031569976511800      3.574149930033350      0.848922373665390
C       2.451158055906890      1.864140671295180     -1.001799418429740
C       1.927537384497120      2.823631952990490     -0.120229455793830
C       2.890157608344370     -0.564388043355800     -1.266952411215520
C       3.046385013116590      0.654113685223430     -0.498900640712970
C       2.888666149193380     -1.782157090309100     -0.564383310858650
C       1.260838496835140     -2.748317321682130     -2.095952260920890
C      -0.140960229029520     -3.061683562813140     -2.044259786396140
C       2.021925967212890     -2.875390974492240     -0.961004321687010
C      -1.916447548267360     -2.848546516386780     -0.411435945716930
C      -0.713801072507560     -3.487962542591330     -0.865404679788470
C      -1.900294319450830     -2.919707459077920      1.020467743958780
C      -3.109172010308080     -0.815113833976490      1.075954797597930
C      -2.505742244532450     -1.925612013126520      1.757734701301360
C      -2.860592392860180      1.590624064215270      1.435253626245420
C      -1.916765491352290      2.525109238477870      1.991152381914970
C      -2.984853728307900      0.321012200721950      1.958068366247800
C      -1.102753574198040      2.131422341618170      3.045088334217930
C       0.824831556483840      3.123864385032660      1.913306253066010
C       2.041910097722910      2.663460775886820      1.297807406883590
C       0.305645300538770      2.439077384055410      3.003796110241820
C       3.235133655805190      0.567316927010520      0.897160834927750
C       2.706968179414370      1.562615080443650      1.796795206576930
C       2.989130767820540     -1.843431627855390      0.856230683167870
C       3.179689569469840     -0.681076476328670      1.584449984154670
C       1.470996059121790     -3.478982918848180      0.222266648832310
C       0.112601240083540     -3.789011991902760      0.271827883589320
C      -0.642137843046810     -3.478616890904570      1.453582071506140
C       2.103442956608780     -2.868727153472730      1.357032786669230
C      -0.013568279211770     -2.961213650920090      2.578041348956160
C       1.393702994983470     -2.651859155267410      2.529791239653730
C      -1.904049113443870     -1.456893465397340      2.981040842252250
C      -2.204961096996490     -0.059212054246620      3.106387282978240
C      -1.255861195021650      0.820669251820670      3.620154624959120
C      -0.662172155917130     -1.943858971272220      3.366918017324400
C       1.020163382476420      1.316089702489730      3.555388858021230
C       2.216984421426470      0.904041362500950      2.980498512510440
C       2.513962501691890     -0.496343131880730      2.849092451734090
C       1.609702067012930     -1.449246791431640      3.296353044471330
C       0.053453703050390      0.326867183361530      3.965492388701280
C       0.343814222402670     -1.026610447653500      3.839771246283710
H      -1.861722222656410      2.410515000005350     -4.666195861560100
H       0.394935957594810      3.002092344751210     -4.728494596094950
H       1.478774967518800      0.882659437424180     -5.257890973458350
H      -3.349642695747020     -0.446439388682630     -3.725576997357060
