70

C      -1.322698044201550      1.880861052276610     -3.942407151314270
C       0.199317622063540      2.219258897306390     -3.972831251795130
C       0.971080657145830      0.899660844179610     -4.305436414999580
C      -1.308516072941000      0.388183743604090     -3.915137011589150
C      -0.079837780932640     -0.156874477853120     -4.160208677997940
C      -2.177346879631460     -0.158597851632180     -2.942496063469820
C      -2.164040010958890      2.237497086778600     -2.690012369668950
C      -2.662149576509580      0.888189018298540     -2.170020995495650
C      -1.435816084297770      2.929441611487120     -1.562104791756980
C       0.730962415079190      2.589401400697190     -2.632322149407550
C      -0.027595932260700      3.181523615357960     -1.604752820715510
C       1.925250977899440      0.700092492673780     -3.139810753231580
C       1.863030363229850      1.829125505013680     -2.296254485877120
C       2.259974013914160     -0.536851592724160     -2.586032640833090
C       0.206839545327920     -1.403444352515200     -3.607605930975790
C       1.465525077786960     -1.663478299202130     -2.996426495846320
C      -1.962486166456830     -1.465223179587440     -2.410360477522550
C      -0.808273179094100     -2.122299847872050     -2.876999822073580
C      -2.471746500487500     -1.751970577319220     -1.092734589198710
C      -3.070507831145410      0.671250499350570     -0.843900380671680
C      -3.060551797651980     -0.678696583196570     -0.312327746942040
C      -2.049048324028760      2.864470051531900     -0.326418858041560
C      -2.956752227056790      1.776371351034120      0.027213958361860
C      -1.381561271687430      3.263868760591740      0.882648351620100
C       0.662919297547790      3.423261140966540     -0.395225231863170
C      -0.026533748977270      3.564703093767750      0.844925625281740
C       2.443134579157980      1.843659566425080     -1.001703065211040
C       1.924909161631400      2.806537241905370     -0.124108854541700
C       2.892885383795510     -0.579153848948210     -1.270392175801410
C       3.047445376199810      0.638786760327130     -0.501175486301350
C       2.891855969446730     -1.796120430353270     -0.565639190327830
C       1.274444754588790     -2.765051482230330     -2.107328849774010
C      -0.135719599071900     -3.070699605682390     -2.053528801694100
C       2.027800723379870     -2.885228846640200     -0.961645470944460
C      -1.917482750506580     -2.853991956316940     -0.407717205512100
C      -0.711638066246300     -3.484228726037010     -0.870262302641230
C      -1.899847023876040     -2.925982128247420      1.023150217860560
C      -3.109010483977840     -0.817607505762820      1.086909657994560
C      -2.505115152773660     -1.930974134436390      1.761293894021610
C      -2.874512275829720      1.591876500582050      1.427081464609200
C      -1.914345991282230      2.518239618508300      1.980573182459110
C      -2.988098215148770      0.314114663299260      1.962647716649030
C      -1.099360418364450      2.124663148005910      3.035107186679870
C       0.831652399479220      3.118531276402020      1.909975089271630
C       2.048286614376930      2.655160584204800      1.293327785539560
C       0.310169874012770      2.432194472586250      2.996401215835320
C       3.239579904688530      0.555925128134110      0.894756337147410
C       2.712792385566920      1.552834880352970      1.792159987045640
C       2.995022611296890     -1.855079810613520      0.858898203691270
C       3.184527083934110     -0.692853011377720      1.584299309768440
C       1.473060747159270     -3.484692777261740      0.222637833342700
C       0.114186412876830     -3.787876820417710      0.270922957585130
C      -0.639769731483360     -3.483171981648670      1.453022270059870
C       2.106241035141530     -2.876068339202490      1.358551957134880
C      -0.011324914434630     -2.965496559397390      2.578362707730380
C       1.394653042386470     -2.657348799294740      2.530653396322380
C      -1.901384111211940     -1.460907276561730      2.983311044101700
C      -2.204627824579580     -0.061108907846050      3.105613855228940
C      -1.252978885842450      0.819366428059970      3.617196882445210
C      -0.660367516365910     -1.947612707157970      3.367470280290880
C       1.024329230003820      1.310298429517980      3.549933306337480
C       2.222526867852190      0.896859648178440      2.977381335820910
C       2.518238099366010     -0.503397366488280      2.848641339495260
C       1.611233113078980     -1.453726651806580      3.296447101304140
C       0.056296633115230      0.323896713204150      3.961709628834880
C       0.346753137946050     -1.029885685388760      3.840100142457880
H      -1.795882935114770      2.280944250238830     -4.841900752705540
H       0.395235983924830      3.016471376443920     -4.693422547113730
H       1.481914590959400      0.908694321611300     -5.270453500897000
H      -3.015171703122000      2.871055824755310     -2.969199251559460
