70

C      -1.312188450031590      1.866853353947480     -3.893946220157700
C       0.197637699340950      2.208010849576270     -3.977334737042610
C       0.957520955596810      0.884104195053460     -4.302091000827100
C      -1.352219194291440      0.368337860792110     -3.959937707112540
C      -0.098202671518220     -0.174668171572560     -4.179896413501500
C      -2.218104352476920     -0.169182477117400     -3.002676430827240
C      -1.964610611030610      2.087380767322160     -2.556644196672740
C      -2.657210641461060      0.926127967199520     -2.167786516753750
C      -1.453954049539900      2.954916947980500     -1.577166263528220
C       0.736693339462330      2.611599489057440     -2.640174475365040
C      -0.018986945212480      3.230307834431460     -1.626157032269630
C       1.909386242923550      0.684079993789180     -3.137591874280180
C       1.851000480442850      1.833517846337880     -2.299528037373450
C       2.259682327207090     -0.536546434246100     -2.594230320099960
C       0.176735101463640     -1.397751674217450     -3.614272748538170
C       1.468527347239280     -1.687610536002310     -2.983840635382250
C      -1.992931911063600     -1.445881856430140     -2.439578005607140
C      -0.823933000693770     -2.102964442250440     -2.893247637756960
C      -2.487112859228890     -1.724291318742580     -1.107308283526210
C      -3.080195163488500      0.692367579853940     -0.843612754619140
C      -3.079934492284130     -0.660564874276760     -0.320300674309640
C      -2.065258764433590      2.871979045101970     -0.313331333483240
C      -2.931195724889350      1.789511394183120      0.027043236724080
C      -1.398205867896350      3.285395415172930      0.896228165417940
C       0.648375162475090      3.434762635759510     -0.404841674245080
C      -0.047407758079390      3.573819192278790      0.848934740174990
C       2.417859954568200      1.843191828281060     -1.004899321527870
C       1.899720142857970      2.810998830543870     -0.127010661763840
C       2.867681935569230     -0.585722982677290     -1.262597351667320
C       3.014304359042460      0.638243702005670     -0.498577175041160
C       2.888970244461050     -1.793644262532030     -0.567784320350540
C       1.287501200550700     -2.764873159258180     -2.148187667816560
C      -0.126721589500280     -3.034120737166420     -2.057671187885070
C       2.216306870390320     -3.080942126569040     -1.034693303776200
C      -1.909180859058300     -2.814936500020600     -0.423233885275330
C      -0.702761003722140     -3.447069773695950     -0.886884474854510
C      -1.888996202675950     -2.891318485965340      1.002732486599040
C      -3.114564250806980     -0.798581300420100      1.080385633604310
C      -2.504746282551870     -1.905188517467380      1.749650055905990
C      -2.876810909668830      1.606559980043620      1.447676531180730
C      -1.927928264801090      2.533999578357140      2.000924823595270
C      -2.994306552670660      0.334116637495850      1.966039757720850
C      -1.109948256437390      2.138398596475070      3.052469266100970
C       0.813820718148680      3.126135250068810      1.912371586855600
C       2.023468181368110      2.660555114195070      1.293183425250310
C       0.298234074846230      2.443527395469080      3.007612488806930
C       3.212797152250270      0.563693711411810      0.893807500767380
C       2.692675203798740      1.563341704816210      1.793789861941800
C       2.963856754218770     -1.839295482392560      0.843939961138250
C       3.160757524412620     -0.679560968665880      1.579819430542300
C       1.479809606371400     -3.497584003225700      0.226895520210840
C       0.128534426254060     -3.758016166518250      0.266604877852540
C      -0.635513995898920     -3.454348874024560      1.438281606833670
C       2.089536392902230     -2.871218170260900      1.349738250540820
C      -0.017953426517090     -2.951419010034710      2.578363703194680
C       1.382546146481410     -2.647823743568270      2.530893349310540
C      -1.908287682649200     -1.446813982562250      2.979966449719170
C      -2.211387158504410     -0.050469635324220      3.111993015777690
C      -1.262290891700350      0.827877359682260      3.627639503427470
C      -0.669587803664330     -1.938375120062200      3.369346956065330
C       1.013059514833330      1.321591463561460      3.558742755166640
C       2.208888936383080      0.906933106961400      2.980742832512260
C       2.503609683376730     -0.493389856654750      2.849194243067450
C       1.600920302821010     -1.445880789426980      3.297536238159720
C       0.047166075818920      0.332016909601720      3.971253177036660
C       0.336782564904200     -1.021475008321810      3.844849148185550
H      -1.874708285895520      2.365923143468020     -4.686937041553170
H       0.379464926714990      2.988149758855470     -4.719434278459610
H       1.470978528296570      0.890796634712560     -5.265635811720940
H       2.963032067923090     -3.832665615114590     -1.321481383075160
