71

C      -1.319486364878020      1.863577922001850     -3.890904285238560
C       0.186582863810570      2.215110961346830     -3.983139074868860
C       0.952320899294340      0.889589434265660     -4.300418573560050
C      -1.340645998590770      0.364478275561890     -3.942222560245370
C      -0.091232122700120     -0.180835636065750     -4.185139270983540
C      -2.202773442787720     -0.167986221439290     -2.982056836910320
C      -1.975773306417180      2.093428780082170     -2.555070263832870
C      -2.659409190144020      0.929181686397240     -2.158968253360420
C      -1.469668686876960      2.965734861947190     -1.578273895730550
C       0.718139725107830      2.637275295194720     -2.648361965674420
C      -0.034713284434610      3.243487199505900     -1.631996901859650
C       1.856295428673870      0.683913707075030     -3.103125696100100
C       1.820535721652700      1.833186683345990     -2.290252149512280
C       2.209752638047210     -0.536539531174160     -2.540509064159970
C       0.199640615728720     -1.408439884161490     -3.634766838250570
C       1.600033594797110     -1.787839522862960     -3.186474925208080
C      -1.961976552431880     -1.430847048417390     -2.412030666915460
C      -0.775913233222930     -2.072373353121360     -2.862187258338360
C      -2.478117164436680     -1.718462748464030     -1.089753843782740
C      -3.081217715898260      0.696743392771950     -0.834730351994250
C      -3.082159654888910     -0.653866466843610     -0.308441983646610
C      -2.073604029059920      2.879688925095710     -0.309475517420710
C      -2.936027135531610      1.796525893325730      0.033896122991790
C      -1.403992202494380      3.291176048358850      0.899604007042270
C       0.637102496074780      3.440930998991870     -0.405170439572400
C      -0.051059789741980      3.578234098153880      0.849354751777070
C       2.386152538387700      1.830827465545340     -1.000372882273940
C       1.886338523161330      2.808505307056490     -0.126018847917500
C       2.832924232283080     -0.573169935776430     -1.277703917785320
C       2.977083178846550      0.616989546625200     -0.507687398031940
C       3.138372025299160     -1.926838208706950     -0.629040043242920
C       1.298189814223900     -2.793035231438470     -2.109503835055440
C      -0.106521019685660     -3.016608146102820     -2.026606420743840
C       2.041620765401220     -2.911817884315080     -0.973431882238710
C      -1.928117817507450     -2.816294461327130     -0.406799885557680
C      -0.711252354247550     -3.444781445156320     -0.862653144928320
C      -1.918051413703540     -2.898904788571480      1.019184618344750
C      -3.127196180457060     -0.793133185596770      1.091763514389680
C      -2.525276823718700     -1.902383585853000      1.762435098316110
C      -2.881240033788560      1.613158668728650      1.455723778977520
C      -1.931317282302910      2.540314710036290      2.005295787358640
C      -3.003151081354280      0.341937283466130      1.974878651940570
C      -1.107731516413680      2.139766745214980      3.053330513013020
C       0.814119046234160      3.122055163342210      1.908159978364370
C       2.018581014844680      2.654741900386280      1.287658160416260
C       0.298085353099380      2.438632585206000      3.004199145961290
C       3.219553638943230      0.554609113559090      0.892748433214850
C       2.689252930593230      1.540711907218230      1.776236901851770
C       3.012383874280830     -1.878204811042050      0.878282751351490
C       3.164807661393670     -0.710110931177730      1.584096737480700
C       1.455948451966030     -3.444117451791500      0.212152376718920
C       0.097020512887950     -3.755877696269250      0.269040331733460
C      -0.662263565429060     -3.459323943606580      1.451919383905140
C       2.088928539489080     -2.848688335811320      1.353579989644670
C      -0.034967555412570     -2.950673912886710      2.580028169780830
C       1.372092797136300     -2.648476857947960      2.536838283965170
C      -1.922629386696170     -1.444014667647110      2.989375526781960
C      -2.218771472756280     -0.045214785959060      3.119434654985270
C      -1.263466046344120      0.828696658581510      3.629018357323900
C      -0.683266104770210     -1.938601619234440      3.375094153842570
C       1.013033236042400      1.310336538809940      3.548842714683140
C       2.202496466711930      0.889128473922230      2.968623732428330
C       2.494572231966410     -0.510935174470410      2.841442230968420
C       1.590817745701120     -1.459009328445900      3.305095849572980
C       0.044008783183750      0.326943858272870      3.970400995867840
C       0.327360703728130     -1.027211938358880      3.851233332136140
H      -1.887228572794360      2.347055352639920     -4.689818473637740
H       0.360904408657980      2.987704262946430     -4.734563347148010
H       1.498730461069510      0.905189539157170     -5.244923203734960
H       2.237042041444050     -2.170060012771330     -3.988849129455490
H       4.135160443001800     -2.256741511720160     -0.947367166453660
