71

C       3.287873000000000     -0.973930000000000      1.451005000000000
C       3.745125000000000     -0.735516000000000     -0.057075000000000
C       3.488766000000000      0.846767000000000     -0.277339000000000
C       2.827780000000000      0.364931000000000      1.951927000000000
C       2.960006000000000      1.374286000000000      1.025900000000000
C       1.680201000000000      0.235218000000000      2.748606000000000
C       2.052795000000000     -1.798439000000000      1.705309000000000
C       1.247944000000000     -1.155528000000000      2.661537000000000
C       1.486247000000000     -2.692479000000000      0.782885000000000
C       2.786379000000000     -1.453197000000000     -1.132843000000000
C       1.757782000000000     -2.471591000000000     -0.621922000000000
C       2.339226000000000      0.921994000000000     -1.252397000000000
C       2.032524000000000     -0.313555000000000     -1.778395000000000
C       1.446019000000000      2.006187000000000     -1.330874000000000
C       2.035002000000000      2.409334000000000      1.045459000000000
C       1.542325000000000      3.077203000000000     -0.236243000000000
C       0.726099000000000      1.264242000000000      2.825614000000000
C       1.004110000000000      2.411745000000000      2.007228000000000
C      -0.666570000000000      0.932745000000000      3.146417000000000
C      -0.098082000000000     -1.517962000000000      2.891833000000000
C      -1.073315000000000     -0.477196000000000      3.226862000000000
C       0.239299000000000     -3.256658000000000      1.169132000000000
C      -0.520348000000000     -2.711599000000000      2.258792000000000
C      -0.693832000000000     -3.755721000000000      0.196261000000000
C       0.748338000000000     -2.772577000000000     -1.521630000000000
C      -0.443325000000000     -3.495437000000000     -1.145157000000000
C       0.869376000000000     -0.517019000000000     -2.554433000000000
C       0.353772000000000     -1.837970000000000     -2.587879000000000
C       0.282361000000000      1.886785000000000     -2.152190000000000
C       0.008146000000000      0.613086000000000     -2.821888000000000
C      -0.809991000000000      2.790874000000000     -1.951686000000000
C       0.169543000000000      3.558435000000000      0.166518000000000
C      -0.077647000000000      3.240021000000000      1.534228000000000
C      -0.880064000000000      3.571140000000000     -0.714573000000000
C      -1.656229000000000      1.896158000000000      2.853114000000000
C      -1.361548000000000      3.044933000000000      2.003360000000000
C      -3.018355000000000      1.530021000000000      2.598708000000000
C      -2.437528000000000     -0.796966000000000      3.054799000000000
C      -3.407599000000000      0.204796000000000      2.708088000000000
C      -1.915592000000000     -2.963015000000000      2.004348000000000
C      -2.036024000000000     -3.613210000000000      0.715365000000000
C      -2.854538000000000     -2.035754000000000      2.410154000000000
C      -3.089351000000000     -3.276157000000000     -0.129394000000000
C      -1.527244000000000     -3.104353000000000     -2.015778000000000
C      -1.011294000000000     -2.068588000000000     -2.898853000000000
C      -2.826853000000000     -3.017769000000000     -1.533605000000000
C      -1.308821000000000      0.340547000000000     -3.268054000000000
C      -1.829294000000000     -1.002455000000000     -3.268559000000000
C      -2.144043000000000      2.421901000000000     -2.293063000000000
C      -2.397013000000000      1.229631000000000     -2.963285000000000
C      -2.238552000000000      3.512036000000000     -0.229177000000000
C      -2.481659000000000      3.266559000000000      1.129134000000000
C      -3.532429000000000      2.354042000000000      1.513984000000000
C      -3.043457000000000      2.852031000000000     -1.227462000000000
C      -4.358731000000000      1.783022000000000      0.552193000000000
C      -4.108029000000000      2.038867000000000     -0.855405000000000
C      -4.349767000000000     -0.362959000000000      1.762415000000000
C      -4.004378000000000     -1.753713000000000      1.577528000000000
C      -4.102846000000000     -2.340444000000000      0.312774000000000
C      -4.787876000000000      0.402602000000000      0.683696000000000
C      -3.692506000000000     -1.927334000000000     -1.957682000000000
C      -3.213073000000000     -0.956767000000000     -2.834048000000000
C      -3.565206000000000      0.434030000000000     -2.644070000000000
C      -4.387046000000000      0.813303000000000     -1.585832000000000
C      -4.502544000000000     -1.529736000000000     -0.822075000000000
C      -4.839578000000000     -0.187820000000000     -0.639889000000000
Cl      4.574254000000000     -1.672752000000000      2.566755000000000
Cl      5.457824000000000     -1.171027000000000     -0.282278000000000
Cl      4.894907000000000      1.800468000000000     -0.915925000000000
Cl      2.577102000000000      4.513955000000000     -0.787040000000000
Cl      3.734197000000000     -2.325723000000000     -2.477660000000000
