71

C      -1.313989269596370      1.857805867195250     -3.910851336582190
C       0.198433878916120      2.185942742588160     -3.957233640931390
C       0.970660029162050      0.884562289281000     -4.282078319699590
C      -1.495646436998960      0.349471995330620     -4.206442366173940
C      -0.082395176794740     -0.245338236774330     -4.472483839839680
C      -2.184594494213260     -0.188423237718070     -2.982777692341630
C      -1.914331822751880      2.043797684126200     -2.551255185583390
C      -2.586236281373010      0.876570269578820     -2.149105206942070
C      -1.427094903046550      2.922874155891220     -1.572103848482130
C       0.746331971933320      2.621056341435310     -2.632851236666640
C      -0.002930816787070      3.231861401338050     -1.615779668894890
C       1.890809400708050      0.695778289795120     -3.107760511767100
C       1.863490268564890      1.841985098278930     -2.285567693657580
C       2.250847838634980     -0.530235926690550     -2.560774435423080
C       0.194264459864440     -1.396834825138490     -3.597615440910560
C       1.438357685775770     -1.637765526360810     -2.970687775077220
C      -1.972010664259340     -1.446429016595340     -2.431269095730670
C      -0.799391966235100     -2.123268984040740     -2.902061214106270
C      -2.463314004700860     -1.735556247886420     -1.090742965676480
C      -3.039176993175340      0.663758280493650     -0.824869793515760
C      -3.059651154291030     -0.676593832450640     -0.302392395376320
C      -2.045600768220030      2.850663355469610     -0.309782927332350
C      -2.913770811947130      1.768109641140350      0.034231339588580
C      -1.392309438648830      3.279434206779100      0.898116294486720
C       0.662679887214300      3.438252958925790     -0.392839181231110
C      -0.037589438933060      3.573354566636310      0.856570497225920
C       2.440543995085730      1.852640793796770     -0.992919747808950
C       1.919659542306790      2.816772623586520     -0.113998530905860
C       2.895300960198700     -0.572949085664290     -1.255078611853580
C       3.044682031451550      0.647805105967840     -0.489597500403270
C       2.896195977256460     -1.790433335810250     -0.552143601156070
C       1.271166566460360     -2.754981912719860     -2.089987623251810
C      -0.133402169571760     -3.059717703975040     -2.046912645139210
C       2.031558479985900     -2.879138337801330     -0.950677221810320
C      -1.918898287683110     -2.835118346590540     -0.404476502073210
C      -0.706038108783390     -3.473088387826870     -0.866721979325570
C      -1.901530472521200     -2.910260758919440      1.021836461064110
C      -3.114640062914930     -0.812843999776170      1.100817646942240
C      -2.510519101569680     -1.919406624191110      1.770732642648510
C      -2.872937932190840      1.595535183703140      1.453553901972950
C      -1.922541389991590      2.528139481706510      2.002810043269590
C      -2.993180563311070      0.324385634036860      1.978367175527700
C      -1.106089090695130      2.132724684718020      3.053992693227810
C       0.819779135717590      3.123114493559110      1.918709546891040
C       2.037087241708230      2.660816372257190      1.302975337809870
C       0.303374001301710      2.438522532717630      3.010767596550160
C       3.233168839597670      0.564379595084150      0.906145528946910
C       2.703336463465710      1.560304197966790      1.803668566661570
C       2.995006990337600     -1.847905955489780      0.871671209651060
C       3.181771120586160     -0.684404939889600      1.596163936321650
C       1.478351513666590     -3.481923681248230      0.231555650289510
C       0.115249429522610     -3.777662886078640      0.273358501457170
C      -0.641406244330570     -3.468760638562110      1.453569609231480
C       2.106851820359380     -2.872497537018100      1.369287044913800
C      -0.016006683665710     -2.956142552636640      2.581344058385450
C       1.392512713206340     -2.650549725993780      2.538148184368950
C      -1.908017290008050     -1.454933430402230      2.995953190411600
C      -2.209796908772820     -0.056629230531960      3.124893605199150
C      -1.258668324607410      0.823255232236480      3.632696153327880
C      -0.664521228563750     -1.941154275514870      3.374627926400780
C       1.018017089263770      1.317205875905250      3.562875847446280
C       2.216587697015870      0.903720868969210      2.989147047513510
C       2.513868390363040     -0.495558903718190      2.860344761489700
C       1.607786586712890     -1.448153297152670      3.304941965280540
C       0.052030113633290      0.329040816105390      3.974310074409910
C       0.341879466888940     -1.024829784493480      3.847552507135900
H      -1.844320907439950      2.476875426811620     -4.638849490847650
H       0.381246947564560      2.959735552110460     -4.707101935589430
H       1.560361432137840      0.982386713426090     -5.196710012700940
H      -2.125348460401300      0.182733208688880     -5.083677945372650
H      -0.043409730558400     -0.572455957521190     -5.515475742795240
