71

C      -1.333044352714520      1.886542665954400     -3.942676911658360
C       0.187284055609190      2.211347759610270     -3.968685085986260
C       0.970742950046400      0.907314216130110     -4.349787795522290
C      -1.313559451604840      0.395281991892740     -3.900686944342630
C      -0.067275227069690     -0.142675257246620     -4.132335566754750
C      -2.173475260557370     -0.147595997311760     -2.931773861424010
C      -2.181892689938370      2.249077973206330     -2.690076984471580
C      -2.684852582199710      0.904174868470460     -2.161913410299650
C      -1.454643684071210      2.929384626002090     -1.556149226643380
C       0.711595919806510      2.519928759585490     -2.610390878468400
C      -0.049006596461990      3.151380136197630     -1.592603247141770
C       2.148250186425340      0.753862657778600     -3.322250436448710
C       1.843391855684810      1.811563463976970     -2.303117627617770
C       2.273901709834230     -0.566038688579860     -2.572213950709380
C       0.205431515421800     -1.378453081108100     -3.588595903891950
C       1.481813803100280     -1.639706543747220     -2.946951427727130
C      -1.958296416003070     -1.445876450248650     -2.396130042183470
C      -0.794335535217640     -2.096277180893570     -2.862520829384320
C      -2.470491298498820     -1.739465752152460     -1.084340749742010
C      -3.086908046332080      0.681907256384280     -0.842435973202320
C      -3.065913269458210     -0.670355222022480     -0.306551248623020
C      -2.070786248366060      2.873058620679310     -0.315634902769560
C      -2.974856227261890      1.788762144877170      0.039557685613390
C      -1.394899458558240      3.264575868209720      0.887868735247350
C       0.641731417376750      3.397989840303490     -0.396356191200770
C      -0.040307300973420      3.558509049397760      0.849198865492590
C       2.419255513839860      1.818190592494000     -1.012532187454800
C       1.900918195433250      2.776579640460390     -0.130623267803510
C       2.911455500021960     -0.598781764903620     -1.279727909059130
C       3.057589545477660      0.626458120581740     -0.501334570668800
C       2.896052973327980     -1.813521476571180     -0.557159892068300
C       1.283227786348740     -2.762192335477560     -2.085960298649510
C      -0.124704420108890     -3.051406618359940     -2.038264690576290
C       2.042216177514440     -2.898595014312220     -0.943917284162030
C      -1.915717530130340     -2.845382684423690     -0.401175815535180
C      -0.705152120457320     -3.473766116462820     -0.861942637088070
C      -1.899599765645630     -2.921087898795040      1.024337279458220
C      -3.114108286048920     -0.812022699728860      1.091874469724880
C      -2.506680154851230     -1.924471774314240      1.764086767250200
C      -2.890005143565600      1.596593885668830      1.440374696731760
C      -1.926784374509720      2.518812505897360      1.993223967612840
C      -3.001156025482410      0.318269009205260      1.973017916884660
C      -1.106339765007670      2.125028342807950      3.039266354823250
C       0.823104564117290      3.112826303625630      1.908259168745820
C       2.033809004399640      2.641857278428020      1.287022791300790
C       0.303608364217670      2.429544091001310      2.998374817762490
C       3.232542287940770      0.548017646112740      0.886823666226920
C       2.702306061227800      1.544385076349040      1.786970981224880
C       2.995725833748720     -1.865799596063340      0.873031339923160
C       3.180909212989490     -0.703233102828050      1.589960756606920
C       1.479236364854820     -3.498313831095320      0.238247846747710
C       0.117767879814900     -3.786912732792930      0.278904392038810
C      -0.641046492734710     -3.480609119331430      1.458209507604160
C       2.108313801727320     -2.887417040779080      1.375223033412830
C      -0.016099948592010     -2.967693774919700      2.586623793854910
C       1.391928011316350     -2.663413616630680      2.543487044452080
C      -1.906342962401450     -1.460800631921980      2.986976847794100
C      -2.210589422506590     -0.060281583970810      3.111998879882950
C      -1.258722284028240      0.815676347263340      3.624305552651250
C      -0.665603406178730     -1.949350119038590      3.373997554291370
C       1.017070750434880      1.307168721003390      3.549092804015100
C       2.214310864221790      0.891545843126650      2.973059615091660
C       2.512517101488120     -0.508150032364550      2.850602029570570
C       1.606326832869840     -1.457971830167110      3.305153158492860
C       0.050219350573010      0.321534758207540      3.966441056322220
C       0.341742799095080     -1.033024124461940      3.846855250499880
H      -1.809738954919150      2.280525193748790     -4.843850984801160
H       0.398175708993400      3.037207014057580     -4.653696198960290
H       1.349900448936610      0.926784985897550     -5.372553525532280
H       3.102358902839970      0.948498980259540     -3.827068633700340
H      -3.029494085995220      2.884816073315960     -2.974519824608980
