72

C      -1.333083550812970      1.883687631815650     -3.936349965305780
C       0.187115201341190      2.204692880900400     -3.962677065256110
C       0.972763938738940      0.903024379574530     -4.349644122803610
C      -1.309185340250920      0.392219133962610     -3.887002384583210
C      -0.061286863629260     -0.149991644559420     -4.133280575018350
C      -2.155831931520950     -0.151216110816420     -2.925538034584340
C      -2.189520158016670      2.252567196937370     -2.687826706196220
C      -2.675247348902020      0.908823463047360     -2.134910916051300
C      -1.463219340843360      2.914015732115400     -1.541489243409450
C       0.710654640860740      2.503790089424250     -2.603055577128870
C      -0.051279950361070      3.126778337240950     -1.583532630120160
C       2.154105589455580      0.748849931833270     -3.324569297842840
C       1.848408696767150      1.802966353230560     -2.302395442730270
C       2.282298609456550     -0.572267305660230     -2.574105273893610
C       0.214326405511650     -1.383469085886830     -3.593846234833310
C       1.495716538761500     -1.646592878066050     -2.950363285984050
C      -1.936941189953570     -1.440280954268080     -2.393814101954160
C      -0.779494159178350     -2.100917044308070     -2.869240086699100
C      -2.445218942866700     -1.727284759588830     -1.081015921269410
C      -3.076948498494500      0.687493533104940     -0.853418704259190
C      -3.038440006472470     -0.652762456344620     -0.306683917567090
C      -2.078634147722110      2.878118331910910     -0.314043882316990
C      -3.215354029150680      1.920677236540180      0.028894289709410
C      -1.388910973462460      3.226897508358550      0.878675269013370
C       0.644147938475330      3.375189604352580     -0.394742317102640
C      -0.034877838350450      3.531857378352510      0.846840183348950
C       2.428146809080650      1.808653911936590     -1.012491760796950
C       1.910905840962000      2.766021849389750     -0.130504234847950
C       2.919854522124050     -0.605451396546930     -1.279982489124820
C       3.068316829040390      0.620444302086030     -0.501324738448310
C       2.903911788807560     -1.818357684757550     -0.558291723710630
C       1.296958834179810     -2.769047632390620     -2.090435697497350
C      -0.111818798823040     -3.057203795079720     -2.042288998394310
C       2.053285668394650     -2.905249896277000     -0.945685309200970
C      -1.902930216625110     -2.839074177260860     -0.403526896702580
C      -0.692935220322560     -3.476927124178920     -0.867878471324110
C      -1.891242174905760     -2.914002274663910      1.015441401796160
C      -3.115836621500070     -0.808447028411210      1.086821776039730
C      -2.502306932975130     -1.907349042615310      1.750404460915470
C      -2.916177414718670      1.613230509516400      1.474613895498990
C      -1.924368608838930      2.495000584445410      1.991258628127070
C      -2.994936070117270      0.341846731933130      1.976769938135450
C      -1.094174862232350      2.117469269695830      3.046622044683140
C       0.831656482197970      3.098574150155540      1.907446944487240
C       2.044752770340200      2.633359238308890      1.286757780628940
C       0.315261274501300      2.422155912563820      3.001233100216240
C       3.243941769551450      0.542573313659030      0.887914609600490
C       2.716635036037920      1.538109785049810      1.788500748740210
C       3.001689825308040     -1.870173395123310      0.874309419029560
C       3.189684657677750     -0.709032450845380      1.590780275153720
C       1.487511363244750     -3.502594988405130      0.236335725038410
C       0.125388795785140     -3.788970132625870      0.275249713152360
C      -0.636745103843030     -3.476679096200690      1.452380247698510
C       2.114271622731160     -2.890895768778750      1.374528579363090
C      -0.012757862729300     -2.965235435677800      2.581667704204270
C       1.395257141531910     -2.665295640069940      2.541727972238500
C      -1.897487537547860     -1.447768706850690      2.975512219604280
C      -2.196650492137650     -0.049462234908590      3.105139173031900
C      -1.245751840719560      0.819726260777450      3.632204625137660
C      -0.662141147007060     -1.943703518820740      3.366236128928020
C       1.031970997741220      1.303896228646940      3.556124152867160
C       2.227141722618850      0.886314072110100      2.976458359471060
C       2.521495566361260     -0.512970399178410      2.852528482652870
C       1.612302737921780     -1.461353200462890      3.304838206498980
C       0.063303435551720      0.320286049022010      3.974934950006930
C       0.348776716749260     -1.032719325006890      3.845535032526220
H      -1.808233474950240      2.270796682593220     -4.841462619055930
H       0.400804646459920      3.034489081854210     -4.642224046023210
H       1.350051100798290      0.926957219245350     -5.373039011374970
H       3.106437736010190      0.944185463687560     -3.832144943824460
H      -3.036119371857450      2.883041125596010     -2.979653433943020
H      -4.206620327444390      2.368912045681830     -0.105014496779100
