72

C      -1.288338045090320      1.870284151612520     -3.909809810047930
C       0.216747587212740      2.232950567733260     -4.026896162240710
C       0.951333567383220      0.888549265848360     -4.244179146213760
C      -1.488354401583570      0.366282822738760     -4.256588719318420
C      -0.105039511036040     -0.163003815353300     -4.150601250548570
C      -2.454977254387020     -0.239440826088870     -3.177332045892610
C      -1.832279001701710      1.963061933873740     -2.526301536306370
C      -2.564344046462760      0.862160668762750     -2.166649856300580
C      -1.359481013111180      2.871531660527950     -1.549024046093220
C       0.885881846501120      2.887482520596330     -2.783601666048770
C       0.014069971894860      3.242966805746320     -1.602417329613400
C       1.867599270140690      0.733017452135770     -3.060425225914010
C       1.876706030614920      1.848628573552330     -2.292165819427560
C       2.252775101293580     -0.532109085105150     -2.523729073868600
C       0.175792323141810     -1.336101783809120     -3.578855597437410
C       1.456994652838660     -1.615022814128840     -2.932284819710020
C      -1.985766249910340     -1.476419827909680     -2.431395074902700
C      -0.832739982685500     -2.106790018178270     -2.856531542447560
C      -2.479044985268360     -1.760065396942320     -1.110815737139840
C      -3.018318550443980      0.646266492509850     -0.844766247700430
C      -3.075394976995920     -0.697742237033390     -0.310770885215850
C      -2.018659341168190      2.825493113830520     -0.312176722050690
C      -2.891134881736390      1.741437302410920      0.018880253377140
C      -1.389302056785570      3.266268701614760      0.891711369057030
C       0.668000473495800      3.463293927246290     -0.404432969972140
C      -0.032517592291330      3.555174776105430      0.842185421883700
C       2.449948852670520      1.861846620161710     -0.989539851061140
C       1.960171541934280      2.837490571010160     -0.111761379302860
C       2.903929999860310     -0.573648194661810     -1.242013816743880
C       3.042480393141440      0.650148656444760     -0.479939480974040
C       2.899576370661600     -1.802165655233040     -0.542998808337720
C       1.272398725347060     -2.731075435064520     -2.087164695305040
C      -0.136256051569220     -3.039760571839550     -2.040179014596260
C       2.041858809395210     -2.873414021665990     -0.941242922053400
C      -1.908441890582540     -2.847417557984780     -0.410786065735770
C      -0.704177803595140     -3.476271605684070     -0.862223295035490
C      -1.895222982014300     -2.922983244967350      1.021527113432240
C      -3.116915029334770     -0.826217377183850      1.083430881918270
C      -2.506228253476660     -1.935545850530320      1.763204928833430
C      -2.869599327434660      1.580047779455930      1.440232091626870
C      -1.925811050537000      2.516054589414160      1.993808786157900
C      -2.993460508200300      0.310467213150520      1.964534953467930
C      -1.106353299559770      2.120539006578750      3.041840372227020
C       0.824073802761720      3.107750864877500      1.905682232599390
C       2.048786680739580      2.657836898170010      1.291829461751360
C       0.303172166968530      2.425754065160690      2.994629300537960
C       3.237287157263160      0.562170582739540      0.913810228408640
C       2.713216391288460      1.549698169200880      1.803681464352160
C       2.999396073722480     -1.859905426941880      0.887498385851800
C       3.183301572018880     -0.698325028428250      1.605543065147290
C       1.481638293236940     -3.485479977710830      0.238969882290970
C       0.123638379813340     -3.784108152633050      0.278759197234620
C      -0.636395906110330     -3.480143289657500      1.457372573311130
C       2.110602122783120     -2.884097281521440      1.380968696501800
C      -0.013965640602530     -2.969298351016980      2.589212419161770
C       1.394835812294300     -2.664876682555400      2.551348302017880
C      -1.907410650746870     -1.467326771968430      2.986400260159040
C      -2.208910078412510     -0.068548562544370      3.109835261664700
C      -1.259149466272580      0.812050009561610      3.620070081844850
C      -0.665318112226780     -1.953149962002340      3.375839520700290
C       1.017677535212670      1.304475754479330      3.554992013431930
C       2.215938056401880      0.893303990303630      2.986653447520720
C       2.513997811692870     -0.508455175534570      2.865457142607170
C       1.608676384305050     -1.461832187015120      3.314107407211560
C       0.050836624638010      0.317873489297210      3.968009601484950
C       0.339585161839300     -1.035809645503810      3.850506479988820
H      -1.874172458719900      2.517080765332170     -4.570531531655370
H       0.352162617861790      2.890335755227990     -4.887360096806050
H       1.501293821129100      0.848249542814870     -5.189733704302220
H      -3.423399675827990     -0.460724686676790     -3.640369247051710
H      -1.900650985183170      0.225134092779540     -5.258058775889000
H       1.415675867113320      3.797315139186820     -3.092893666621750
