72

C       3.166551000000000     -1.681938000000000      0.797846000000000
C       3.166553000000000     -1.681920000000000     -0.797887000000000
C       3.252296000000000     -0.163976000000000     -1.254972000000000
C       3.252282000000000     -0.164018000000000      1.254959000000000
C       3.074171000000000      0.622992000000000      0.000008000000000
C       2.025095000000000      0.042058000000000      2.127631000000000
C       1.848068000000000     -2.126902000000000      1.372669000000000
C       1.364946000000000     -1.214049000000000      2.318954000000000
C       0.962042000000000     -3.023183000000000      0.737710000000000
C       1.848081000000000     -2.126860000000000     -1.372728000000000
C       0.962039000000000     -3.023150000000000     -0.737793000000000
C       2.025097000000000      0.042126000000000     -2.127620000000000
C       1.364946000000000     -1.213968000000000     -2.318971000000000
C       1.325147000000000      1.212871000000000     -2.187989000000000
C       2.421672000000000      1.774439000000000      0.000024000000000
C       1.796123000000000      2.347865000000000     -1.265137000000000
C       1.325131000000000      1.212796000000000      2.188013000000000
C       1.796091000000000      2.347798000000000      1.265174000000000
C      -0.020676000000000      1.222524000000000      2.759293000000000
C       0.044606000000000     -1.282591000000000      2.837691000000000
C      -0.645546000000000     -0.043944000000000      3.149646000000000
C      -0.257384000000000     -3.264965000000000      1.399414000000000
C      -0.686148000000000     -2.442196000000000      2.501348000000000
C      -1.444806000000000     -3.699724000000000      0.694573000000000
C      -0.257382000000000     -3.264903000000000     -1.399502000000000
C      -1.444803000000000     -3.699696000000000     -0.694682000000000
C       0.044611000000000     -1.282484000000000     -2.837710000000000
C      -0.686146000000000     -2.442091000000000     -2.501405000000000
C      -0.020668000000000      1.222630000000000     -2.759263000000000
C      -0.645536000000000     -0.043830000000000     -3.149644000000000
C      -0.862023000000000      2.322616000000000     -2.498493000000000
C       0.639491000000000      3.118573000000000     -0.704345000000000
C       0.639483000000000      3.118541000000000      0.704424000000000
C      -0.541802000000000      3.249101000000000     -1.401278000000000
C      -0.862027000000000      2.322512000000000      2.498541000000000
C      -0.541803000000000      3.249053000000000      1.401367000000000
C      -2.284282000000000      2.204713000000000      2.536986000000000
C      -2.054328000000000     -0.103460000000000      3.280492000000000
C      -2.880285000000000      1.015624000000000      2.941165000000000
C      -2.123135000000000     -2.446839000000000      2.536876000000000
C      -2.607403000000000     -3.225368000000000      1.411894000000000
C      -2.793379000000000     -1.308039000000000      2.938758000000000
C      -3.742960000000000     -2.808696000000000      0.725753000000000
C      -2.607395000000000     -3.225311000000000     -1.411988000000000
C      -2.123123000000000     -2.446743000000000     -2.536937000000000
C      -3.742958000000000     -2.808671000000000     -0.725842000000000
C      -2.054316000000000     -0.103344000000000     -3.280487000000000
C      -2.793367000000000     -1.307932000000000     -2.938786000000000
C      -2.284288000000000      2.204815000000000     -2.536935000000000
C      -2.880282000000000      1.015729000000000     -2.941138000000000
C      -1.749025000000000      3.555229000000000     -0.703149000000000
C      -1.749025000000000      3.555207000000000      0.703255000000000
C      -2.849381000000000      2.949936000000000      1.417829000000000
C      -2.849381000000000      2.949994000000000     -1.417747000000000
C      -3.939302000000000      2.436683000000000      0.728991000000000
C      -3.939301000000000      2.436706000000000     -0.728922000000000
C      -4.075457000000000      0.529244000000000      2.278726000000000
C      -4.024009000000000     -0.915917000000000      2.280072000000000
C      -4.472758000000000     -1.636228000000000      1.173129000000000
C      -4.577706000000000      1.211861000000000      1.173040000000000
C      -4.472748000000000     -1.636185000000000     -1.173184000000000
C      -4.023997000000000     -0.915836000000000     -2.280101000000000
C      -4.075453000000000      0.529323000000000     -2.278717000000000
C      -4.577710000000000      1.211904000000000     -1.173011000000000
C      -4.947546000000000     -0.927324000000000     -0.000017000000000
C      -4.994351000000000      0.467309000000000      0.000004000000000
Cl      4.422264000000000     -2.751430000000000      1.540613000000000
Cl      4.422270000000000     -2.751422000000000     -1.540656000000000
Cl      4.772797000000000      0.316773000000000     -2.122070000000000
Cl      2.956842000000000      3.493461000000000     -2.148766000000000
Cl      4.772812000000000      0.316712000000000      2.122041000000000
Cl      2.956854000000000      3.493379000000000      2.148883000000000
