72

C      -1.288640881542890      1.851875119985690     -3.865213450311180
C       0.203002960334690      2.227544220580060     -4.022496281265750
C       0.948163492706160      0.877234321531840     -4.273045760758440
C      -1.335602481796280      0.352530794266670     -3.938110727110500
C      -0.093739324863470     -0.199580261991130     -4.188717353587840
C      -2.199622238726940     -0.186261961910550     -2.981534959024160
C      -1.927344123600010      2.055791633813820     -2.524235908962880
C      -2.637037164424780      0.908499332916730     -2.145040488960670
C      -1.414739462509260      2.912994310664640     -1.539380826330800
C       0.860814322060640      2.879108722258280     -2.777092208789770
C      -0.017528088770330      3.245055165559890     -1.592375183617690
C       1.793394345568780      0.668128419703530     -3.046004615986620
C       1.820504625140020      1.829648861490350     -2.259855683391410
C       2.165003663881670     -0.549625740103610     -2.534922296033400
C       0.185857417348150     -1.435349560788730     -3.647762688122920
C       1.582378031513560     -1.806677437176940     -3.186471600547810
C      -1.968387581797040     -1.453840609363380     -2.416467568037140
C      -0.788786236062960     -2.102706825085220     -2.873650662300800
C      -2.476770557988940     -1.743189558139610     -1.089808085615040
C      -3.075934682180050      0.671251883327700     -0.823781019799280
C      -3.081358651622500     -0.678126034710170     -0.302087188754100
C      -2.062403465435950      2.842450100409140     -0.288926290475070
C      -2.943635954083590      1.767987743177370      0.046482087600430
C      -1.407813637045580      3.255083136779100      0.907832252769540
C       0.637415952987270      3.466207184760010     -0.407154818501460
C      -0.049143700112140      3.525863799168820      0.840283683275740
C       2.378499120048820      1.842840576402790     -1.013261965966210
C       2.083937568882560      3.057176789684640     -0.152195547586850
C       2.793116826123390     -0.587417168720520     -1.252395915149840
C       2.940294325342590      0.637172146269130     -0.496941103097090
C       2.881228804477680     -1.819406908692650     -0.564259167697570
C       1.280551221274370     -2.827455323303960     -2.123690406757240
C      -0.122123239877190     -3.055101574017080     -2.040401054921710
C       2.018751475659180     -2.924930672505150     -0.974205926189860
C      -1.926353544204440     -2.839274420095630     -0.407527596856830
C      -0.715765019356870     -3.479759022557660     -0.866951447201560
C      -1.912512550549490     -2.920354282993870      1.019984982643310
C      -3.129173457464350     -0.818652043009470      1.096467050201440
C      -2.518697620222510     -1.927916846179950      1.765221030827400
C      -2.898047633903920      1.587614982597060      1.465966390365370
C      -1.941580897175490      2.513002413488470      2.015993868087130
C      -3.012224075729890      0.314099287121820      1.983475006842410
C      -1.119033820676520      2.117510360870670      3.058751202443810
C       0.814206614288220      3.092204406947940      1.901324878691280
C       2.045267048887920      2.687681627840290      1.309440396662450
C       0.290184469939140      2.420667033382370      3.005812037599970
C       3.204783594084600      0.557385437175660      0.887347984672310
C       2.679151807984710      1.574222844730870      1.792317864075210
C       2.978335431440750     -1.861160781244830      0.841488422158410
C       3.157188630529090     -0.679038240935470      1.564078036298270
C       1.458687567857460     -3.498404026065630      0.215618646186360
C       0.096490134488790     -3.796761061117990      0.267286427109640
C      -0.655657990295080     -3.484521563719720      1.449648712731150
C       2.092022848959810     -2.884702185508070      1.349772250517620
C      -0.023276662180410     -2.966153055272100      2.571812972739700
C       1.383681062870770     -2.659182657014660      2.519303694651100
C      -1.915902763977820     -1.466143484400420      2.989275213433490
C      -2.220857982166330     -0.069733015500350      3.124604853622990
C      -1.270643603117550      0.808396493267540      3.637866719568170
C      -0.669199092455970     -1.951440227486380      3.365260401671910
C       1.003049516268740      1.308943605075700      3.561411294878360
C       2.193831717786690      0.903405801280400      2.966338910858220
C       2.494935476099340     -0.495614918957380      2.833682761524360
C       1.600275527429650     -1.451780003470880      3.285414683218790
C       0.042381612602900      0.316643897581750      3.976301771900580
C       0.335683098993200     -1.034688793834850      3.837856426105260
H      -1.890064668093260      2.342548888717320     -4.637066792353420
H       0.318208013087190      2.892447473100750     -4.879626925446020
H       1.542329230628570      0.873793071750430     -5.189227417746810
H       2.235030071962000     -2.180942855084280     -3.980831555205920
H       1.407041014203220      3.780133096388760     -3.081700270452770
H       2.800351465873790      3.858611095557610     -0.366624910531420
