73

C      -1.297169572033020      1.855268941750110     -3.871326864511160
C       0.194016798171350      2.232365467328190     -4.028320185729490
C       0.939459532144620      0.881192321839150     -4.277765847444360
C      -1.343345657788620      0.355119184058430     -3.945258819705710
C      -0.101795440501470     -0.196256247702620     -4.196174996713700
C      -2.205003559396940     -0.184230571971490     -2.985834793411360
C      -1.932884172171670      2.058156047186020     -2.528425828704720
C      -2.642689221430060      0.909549528388290     -2.148929073695830
C      -1.420742182762830      2.915165015229270     -1.543471954607580
C       0.850461544695930      2.880090654152450     -2.779108352087840
C      -0.024512105728870      3.249796062254920     -1.595278899139160
C       1.770099151458430      0.676045303650420     -3.040130696950130
C       1.788641567109040      1.817059487397960     -2.258285839664680
C       2.151689271574520     -0.546067709705840     -2.517928734143260
C       0.180848386695620     -1.430548403574930     -3.650897554317310
C       1.576468166233220     -1.797761285306800     -3.180494503953250
C      -1.971270753699540     -1.451085490033870     -2.419478686439380
C      -0.790456451555070     -2.097703991201990     -2.875702575531250
C      -2.479162700251210     -1.740164431816280     -1.092303550002410
C      -3.080508001160230      0.671244681874060     -0.828343781148960
C      -3.084764499116580     -0.680070590228310     -0.306411992066860
C      -2.067882240018120      2.841632448086770     -0.292398566537950
C      -2.948400813367040      1.766556746705610      0.042680998127550
C      -1.411920362111860      3.251640865437170      0.903590411286530
C       0.636511014929820      3.462486693781760     -0.410737819917310
C      -0.051825426025300      3.515815630297920      0.835134614720560
C       2.353521055759830      1.816341831101360     -0.992037553538650
C       2.083849372557490      3.051745308598070     -0.154899279120940
C       2.771051881914680     -0.571862106445230     -1.242820446206400
C       2.914650680896260      0.638168140775000     -0.502752807768160
C       2.886877047338030     -1.832494126439390     -0.560851147620030
C       1.277747726000940     -2.819625103603760     -2.122094458459120
C      -0.116068265589170     -3.042283029778240     -2.035824129833860
C       2.022525461773450     -2.904252583747320     -0.959615103358780
C      -1.923069069591920     -2.837075310876120     -0.408301773379140
C      -0.715779943101610     -3.472340818379020     -0.862672951055500
C      -1.917423659313100     -2.921516737974580      1.020731194090330
C      -3.136125524203230     -0.820621617881320      1.093561290049770
C      -2.529205228419290     -1.931267699546270      1.764200648387640
C      -2.904783081943960      1.586464546457770      1.462583193672200
C      -1.949440134448640      2.509153364305910      2.011411660247550
C      -3.021085152637360      0.310325069978370      1.980746414274880
C      -1.127742935762140      2.112764495502080      3.054820886624440
C       0.811056409926550      3.074439026498860      1.891180471178050
C       2.045646519973630      2.671152714178390      1.304270246841700
C       0.281511287506710      2.409165218815310      2.995493572424820
C       3.469038641709280      0.613881505854310      0.916868889546870
C       2.693187558012470      1.575492805799960      1.793907803953270
C       2.970331063996200     -1.858161840366530      0.869652424965880
C       3.175764147384890     -0.704481562902050      1.594133325469150
C       1.455460802536180     -3.488899319141640      0.229293035142100
C       0.096489352311960     -3.788879219075590      0.273969926223060
C      -0.663988898620450     -3.485703738826670      1.456125258869420
C       2.081826148823250     -2.879012042803270      1.366444800200140
C      -0.040212763275070     -2.977963951148790      2.586088103561610
C       1.367815205958150     -2.667603440110650      2.540208172702280
C      -1.932293233267220     -1.471831527018780      2.992004031460240
C      -2.236587620385030     -0.073510186129460      3.123789064957450
C      -1.282341355205300      0.803714600539050      3.635314240860960
C      -0.689942212608640     -1.961237243276870      3.375374412182190
C       0.989427636224630      1.296563233013500      3.541281124384600
C       2.173694890754850      0.891184083150140      2.933270274914940
C       2.475471651735750     -0.507886429082330      2.809029781593810
C       1.579889602036640     -1.466788698600150      3.293064700937510
C       0.027464780660710      0.308697337684280      3.970023394241650
C       0.318626407823630     -1.043134259082650      3.840933398038310
H      -1.900084707615590      2.346489180019480     -4.641747668521690
H       0.310409848711120      2.898876581875990     -4.883910290252960
H       1.540915162599360      0.876816261606830     -5.188884717862240
H       2.236156535636850     -2.160867425092190     -3.974611442750530
H       1.409249600418140      3.774687917586040     -3.080199674637540
H       2.807089520887880      3.841765328594660     -0.383002215407260
H       4.543035776198390      0.836598179961710      0.886658963282610
