73

C      -3.363343000000000     -1.404638000000000     -0.289321000000000
C      -3.135725000000000     -1.073177000000000      1.264403000000000
C      -3.085948000000000      0.507685000000000      1.424823000000000
C      -3.195492000000000      0.007035000000000     -1.021791000000000
C      -2.907321000000000      1.017586000000000      0.038066000000000
C      -1.965762000000000     -0.115059000000000     -1.873573000000000
C      -2.207727000000000     -2.328226000000000     -0.952200000000000
C      -1.484271000000000     -1.400623000000000     -1.902974000000000
C      -1.154762000000000     -2.937504000000000     -0.025503000000000
C      -1.813397000000000     -1.486993000000000      1.819918000000000
C      -1.049784000000000     -2.580092000000000      1.364415000000000
C      -1.800226000000000      0.774771000000000      2.196241000000000
C      -1.224580000000000     -0.474207000000000      2.581592000000000
C      -1.000936000000000      1.867046000000000      2.008938000000000
C      -2.153891000000000      2.081211000000000     -0.210920000000000
C      -1.418014000000000      2.834844000000000      0.893903000000000
C      -1.182526000000000      0.990835000000000     -2.239225000000000
C      -1.528701000000000      2.324335000000000     -1.575127000000000
C       0.084220000000000      0.768281000000000     -2.847599000000000
C      -0.204889000000000     -1.690383000000000     -2.437864000000000
C       0.573638000000000     -0.604846000000000     -2.996613000000000
C      -0.007258000000000     -3.400953000000000     -0.652566000000000
C       0.442257000000000     -2.850948000000000     -1.943029000000000
C       1.179620000000000     -3.763349000000000      0.079389000000000
C       0.161024000000000     -2.813793000000000      2.061020000000000
C       1.260006000000000     -3.499750000000000      1.442588000000000
C       0.100748000000000     -0.568273000000000      3.078214000000000
C       0.707015000000000     -1.835881000000000      2.965395000000000
C       0.371166000000000      1.854648000000000      2.517087000000000
C       0.906355000000000      0.637271000000000      3.128210000000000
C       1.295156000000000      2.798863000000000      2.014949000000000
C      -0.224437000000000      3.365750000000000      0.155371000000000
C      -0.292051000000000      3.087173000000000     -1.219099000000000
C       1.001245000000000      3.520038000000000      0.772903000000000
C       1.042891000000000      1.833672000000000     -2.860747000000000
C       0.861699000000000      2.971051000000000     -1.971662000000000
C       2.444393000000000      1.570556000000000     -2.929853000000000
C       1.962858000000000     -0.817657000000000     -3.178805000000000
C       2.904959000000000      0.272436000000000     -3.103205000000000
C       1.853285000000000     -2.970626000000000     -2.007557000000000
C       2.335809000000000     -3.548567000000000     -0.760488000000000
C       2.608150000000000     -1.987324000000000     -2.648620000000000
C       3.534580000000000     -3.114509000000000     -0.213046000000000
C       2.495228000000000     -3.004078000000000      2.009582000000000
C       2.136753000000000     -1.973087000000000      2.965294000000000
C       3.619360000000000     -2.834667000000000      1.209733000000000
C       2.309631000000000      0.469140000000000      3.225622000000000
C       2.922440000000000     -0.843895000000000      3.107870000000000
C       2.702195000000000      2.554760000000000      2.032097000000000
C       3.212063000000000      1.416158000000000      2.644432000000000
C       2.196963000000000      3.570206000000000     -0.013267000000000
C       2.128736000000000      3.297530000000000     -1.388146000000000
C       3.134508000000000      2.464569000000000     -2.006331000000000
C       3.275011000000000      3.011615000000000      0.770606000000000
C       4.207416000000000      1.989949000000000     -1.265180000000000
C       4.279303000000000      2.272366000000000      0.162087000000000
C       4.087000000000000     -0.189427000000000     -2.407859000000000
C       3.903369000000000     -1.595776000000000     -2.121390000000000
C       4.343374000000000     -2.125058000000000     -0.911219000000000
C       4.708010000000000      0.643867000000000     -1.477689000000000
C       4.468478000000000     -1.672070000000000      1.385902000000000
C       4.145456000000000     -0.708964000000000      2.344810000000000
C       4.324828000000000      0.696294000000000      2.054431000000000
C       4.826269000000000      1.097219000000000      0.818439000000000
C       4.941933000000000     -1.253968000000000      0.080717000000000
C       5.116488000000000      0.104068000000000     -0.196001000000000
Cl     -4.993949000000000     -2.082242000000000     -0.538039000000000
Cl     -4.320829000000000     -1.882763000000000      2.384278000000000
Cl     -4.526111000000000      1.265757000000000      2.224048000000000
Cl     -2.432652000000000      4.235777000000000      1.560647000000000
Cl     -4.599652000000000      0.527404000000000     -2.063578000000000
Cl     -2.604298000000000      3.372724000000000     -2.677351000000000
Cl     -2.892456000000000     -3.744114000000000     -1.938444000000000
