73

C      -1.312127394714550      1.869162685689730     -3.915040287556820
C       0.202767730216000      2.207468407782940     -3.969765327069740
C       0.958320725225700      0.888648424368530     -4.263120808500240
C      -1.486724762653310      0.363516378824580     -4.240302547963540
C      -0.093456515037840     -0.165671753972700     -4.148271612994640
C      -2.456320651970910     -0.226792237829820     -3.164184693487940
C      -1.882097933631270      2.000576935308640     -2.538932875803210
C      -2.592047756644180      0.885259682603070     -2.165587239136530
C      -1.412462769881040      2.920223967655120     -1.568432448091500
C       0.749581101525890      2.647349528793220     -2.642421139198210
C       0.002104366032730      3.245957233147680     -1.619925655598210
C       1.888244064777390      0.703593461717630     -3.084232851589110
C       1.859328915368080      1.856771274610830     -2.279681056509700
C       2.235324299884050     -0.513285663226530     -2.517428509807820
C       0.194667443639410     -1.342017523797380     -3.600336575645340
C       1.593454080636370     -1.743261814549280     -3.157593221694030
C      -1.967831058825780     -1.445463938742160     -2.412575976512100
C      -0.802389908453560     -2.059817646561660     -2.830701585107120
C      -2.476487613056510     -1.730790481835930     -1.099822695253660
C      -3.032951453138750      0.671190857095800     -0.843102917529460
C      -3.084519845471060     -0.672028204757380     -0.306388789604220
C      -2.032623104071410      2.856370930603130     -0.318997731723340
C      -2.894608013396580      1.769029061975140      0.019945110906910
C      -1.385609311013400      3.287174027953820      0.895844797971290
C       0.667560513643780      3.457857384989850     -0.391240000305450
C      -0.033610416539920      3.582647604400740      0.856351913641500
C       2.418800391948520      1.852154235936370     -0.983411117070130
C       1.916355677513030      2.825939009328390     -0.106521621643600
C       2.856014888492700     -0.555177110223500     -1.255852610085960
C       3.001586225393890      0.633917006966700     -0.486279765137990
C       3.144046758772290     -1.914076776049560     -0.611941903658260
C       1.291813283728160     -2.756732282814680     -2.091347579381480
C      -0.112130448424990     -2.993382024016150     -2.014471008974720
C       2.038852858686770     -2.888598099044970     -0.961941326265810
C      -1.917892859212200     -2.821869026039040     -0.402887898999950
C      -0.708714810045350     -3.441739124263000     -0.850415859742810
C      -1.912860861741020     -2.905880432499300      1.028939450076120
C      -3.125697582702340     -0.802719473237780      1.089105491250320
C      -2.522764973685870     -1.914091863731230      1.769426712428690
C      -2.863513255323580      1.601530063662020      1.442346420073830
C      -1.921335272985170      2.534491243211790      1.996289265669620
C      -2.997009390916960      0.333665301745380      1.968010911555450
C      -1.105792244446000      2.137440653850340      3.051652438311250
C       0.824218062710630      3.125577371047010      1.921408915806400
C       2.034463387926250      2.664078576347660      1.308609753162720
C       0.299830811919160      2.439448601933130      3.012169008007690
C       3.233553421226400      0.563799830441550      0.915656275634460
C       2.699680592955660      1.547252582938980      1.799306199125390
C       3.016312150027090     -1.870454047335860      0.894552440486100
C       3.170195260813980     -0.703982548893780      1.602367298492240
C       1.457167428137130     -3.433015593061080      0.223657833853780
C       0.103735180255790     -3.756439316813950      0.281807253526650
C      -0.657420486966580     -3.464338568359050      1.463699539144970
C       2.091996856091110     -2.842316076091360      1.366594820683040
C      -0.031448980439960     -2.953232824939460      2.593362361074710
C       1.374810696553690     -2.646877454495940      2.550036647027800
C      -1.921637111311500     -1.449229578223900      2.993282175206250
C      -2.217158912213310     -0.049738812535120      3.116674325139140
C      -1.264418148962900      0.826501415076610      3.627558869544190
C      -0.681796777176980     -1.941795712473350      3.384559777339330
C       1.011753191960580      1.311740312685560      3.560886137598090
C       2.204011149574820      0.892405258994460      2.985917310183080
C       2.495807933024990     -0.507999911309820      2.857702739383600
C       1.591784689305830     -1.456859804993440      3.318905771019730
C       0.041414183906400      0.326659637959720      3.977113921260330
C       0.326376427192260     -1.027008909723720      3.861434316660310
H      -1.863649114357470      2.507321603615920     -4.610566990683720
H       0.390249414891360      2.971337476124170     -4.728137348624820
H       1.486974866749020      0.884775557151670     -5.219344415701520
H      -3.418582815752050     -0.464807233711520     -3.631914533446210
H      -1.893412938675850      0.204579196696850     -5.242159646089100
H       2.205643311450980     -2.131714580323980     -3.977079405707730
H       4.137730337265950     -2.254029976384310     -0.930143853978730
