73

C       3.243949000000000     -1.933561000000000      0.179012000000000
C       3.224417000000000     -1.341928000000000     -1.301586000000000
C       3.260885000000000      0.242746000000000     -1.161654000000000
C       3.293527000000000     -0.691813000000000      1.166516000000000
C       3.071931000000000      0.500091000000000      0.294422000000000
C       2.077926000000000     -0.865115000000000      2.061011000000000
C       1.944066000000000     -2.598605000000000      0.550078000000000
C       1.452423000000000     -2.120542000000000      1.771739000000000
C       1.071740000000000     -3.220767000000000     -0.369222000000000
C       1.912677000000000     -1.585568000000000     -1.996333000000000
C       1.053250000000000     -2.667861000000000     -1.738221000000000
C       2.017013000000000      0.716118000000000     -1.886693000000000
C       1.383683000000000     -0.380678000000000     -2.512562000000000
C       1.260987000000000      1.816980000000000     -1.491998000000000
C       2.388118000000000      1.548267000000000      0.727730000000000
C       1.736160000000000      2.546048000000000     -0.223924000000000
C       1.349927000000000      0.176370000000000      2.557918000000000
C       1.773287000000000      1.586913000000000      2.118697000000000
C       0.013277000000000     -0.070383000000000      3.100199000000000
C       0.141535000000000     -2.414622000000000      2.231748000000000
C      -0.573052000000000     -1.404220000000000      2.991139000000000
C      -0.133884000000000     -3.719255000000000      0.157970000000000
C      -0.566219000000000     -3.380779000000000      1.485705000000000
C      -1.327212000000000     -3.887698000000000     -0.654776000000000
C      -0.174269000000000     -2.671936000000000     -2.435400000000000
C      -1.345350000000000     -3.364975000000000     -1.939662000000000
C       0.055014000000000     -0.281409000000000     -3.000465000000000
C      -0.641744000000000     -1.500195000000000     -3.132399000000000
C      -0.053958000000000      1.986405000000000     -1.996983000000000
C      -0.662982000000000      0.964394000000000     -2.809889000000000
C      -0.914648000000000      3.130682000000000     -1.458654000000000
C       0.566188000000000      3.014108000000000      0.587641000000000
C       0.589667000000000      2.474674000000000      1.893069000000000
C      -0.623944000000000      3.381129000000000      0.010633000000000
C      -0.858545000000000      1.023730000000000      3.276893000000000
C      -0.577737000000000      2.296494000000000      2.597238000000000
C      -2.276558000000000      0.861140000000000      3.277546000000000
C      -1.981338000000000     -1.547712000000000      3.096840000000000
C      -2.838360000000000     -0.411331000000000      3.212167000000000
C      -2.005637000000000     -3.434360000000000      1.520495000000000
C      -2.488969000000000     -3.749844000000000      0.192740000000000
C      -2.696976000000000     -2.554835000000000      2.330283000000000
C      -3.646703000000000     -3.134098000000000     -0.281542000000000
C      -2.527659000000000     -2.679574000000000     -2.418700000000000
C      -2.074441000000000     -1.525200000000000     -3.160588000000000
C      -3.665642000000000     -2.585119000000000     -1.620085000000000
C      -2.080550000000000      0.928325000000000     -2.976613000000000
C      -2.773030000000000     -0.322811000000000     -3.096397000000000
C      -2.396986000000000      2.800258000000000     -1.420381000000000
C      -2.940163000000000      1.826797000000000     -2.219460000000000
C      -1.818533000000000      3.320599000000000      0.769932000000000
C      -1.802317000000000      2.805132000000000      2.075999000000000
C      -2.878774000000000      1.951857000000000      2.525522000000000
C      -2.925873000000000      3.009528000000000     -0.108536000000000
C      -3.971707000000000      1.708461000000000      1.705705000000000
C      -4.007370000000000      2.258944000000000      0.358941000000000
C      -4.035220000000000     -0.645092000000000      2.423801000000000
C      -3.948142000000000     -1.979571000000000      1.877340000000000
C      -4.396544000000000     -2.239191000000000      0.580986000000000
C      -4.576749000000000      0.389737000000000      1.663953000000000
C      -4.426815000000000     -1.347767000000000     -1.586346000000000
C      -4.008429000000000     -0.248503000000000     -2.332182000000000
C      -4.102848000000000      1.084071000000000     -1.784655000000000
C      -4.620237000000000      1.283365000000000     -0.503730000000000
C      -4.908964000000000     -1.152469000000000     -0.230035000000000
C      -4.998278000000000      0.133644000000000      0.300335000000000
Cl      4.537319000000000     -3.163987000000000      0.470623000000000
Cl      4.500788000000000     -2.014778000000000     -2.391853000000000
Cl      4.760934000000000      1.056451000000000     -1.782464000000000
Cl      2.860064000000000      3.947844000000000     -0.634683000000000
Cl      4.815762000000000     -0.513089000000000      2.137440000000000
Cl      2.919823000000000      2.359389000000000      3.357161000000000
Cl     -0.609380000000000      4.643127000000000     -2.505262000000000
