74

C      -1.283480551202070      1.861476818695650     -3.893375135580890
C       0.219291833112170      2.222780802594710     -4.013076497987450
C       0.950007992357380      0.876874381739370     -4.232053289441810
C      -1.484832358547310      0.359412102487880     -4.238661298625900
C      -0.102176874319190     -0.181704138829660     -4.146998493187010
C      -2.454950559670280     -0.242186331928980     -3.165022727564600
C      -1.823596892058320      1.952849792139350     -2.509425037404850
C      -2.565186442168100      0.858393533724740     -2.154094099616140
C      -1.347871623567270      2.856932193000090     -1.531123050046970
C       0.888870549537180      2.889174639419310     -2.773414713105330
C       0.024638311517690      3.240767407237190     -1.581790082494290
C       1.823103947215450      0.689595570203340     -3.024091128693880
C       1.860422539793180      1.854090211770650     -2.247678302867730
C       2.190111579216100     -0.524764247333070     -2.509000796443080
C       0.175836550218390     -1.366878357370300     -3.611025361847470
C       1.570546860163610     -1.758493156975430     -3.154156430177120
C      -1.976895504987770     -1.471585091130750     -2.417396317438880
C      -0.817467776482180     -2.094574315546620     -2.843359444231270
C      -2.476042416289360     -1.758184324961130     -1.101605345988150
C      -3.024818110097800      0.641618284309720     -0.834002891984070
C      -3.083616509391180     -0.698424635413900     -0.301147321360410
C      -2.015096882741780      2.812895005911620     -0.301098057786120
C      -2.898207510676030      1.737175871872370      0.029719174624860
C      -1.387246775433640      3.249004781257960      0.899979400200150
C       0.671153808087480      3.482082298359740     -0.392468131590680
C      -0.028800045169730      3.530004774471280      0.845279890937600
C       2.413000548278550      1.864705339497990     -0.995912217730700
C       2.115940403743830      3.075507082824760     -0.128234247403320
C       2.816687525259230     -0.568342654036130     -1.230104517363590
C       2.965603349816560      0.655392943779810     -0.474915412817240
C       2.885846371243590     -1.804376506713210     -0.546246265154280
C       1.272372568215440     -2.790224503471260     -2.105030127102970
C      -0.128622782275560     -3.034813767291330     -2.029284146051680
C       2.015884281924060     -2.900570453619060     -0.962351283821060
C      -1.915811362233260     -2.847805084705550     -0.403857030129020
C      -0.713681187945050     -3.478591489043530     -0.854339330585290
C      -1.906833879556380     -2.928461100186400      1.029730956261930
C      -3.127873662741530     -0.829385353474900      1.093203462576540
C      -2.515819639295460     -1.940261633400310      1.771786184738830
C      -2.879406010837630      1.575009125998570      1.450013929407180
C      -1.931403030883440      2.506842586524380      2.004157623358760
C      -3.006472863260900      0.305143430932750      1.975094739034410
C      -1.117340295875540      2.115612139464920      3.054487606022430
C       0.825822378712570      3.096982962308990      1.915058871197660
C       2.062179028449680      2.697727459449140      1.332169401627020
C       0.291958794712520      2.422609418191820      3.013359716466940
C       3.219987806351820      0.567370028764150      0.911550822054840
C       2.690843973819320      1.581295786619420      1.817077189397620
C       2.981287383282870     -1.852376165478970      0.858583844853450
C       3.163169271322800     -0.671557662984060      1.583447706898640
C       1.460215263312670     -3.486283145033270      0.227445510889790
C       0.103828400362070     -3.797262643938190      0.280720885407730
C      -0.650235138387650     -3.489990433964700      1.462129309534520
C       2.094997421352950     -2.877115035942710      1.363104640066690
C      -0.019136414274880     -2.968382090236310      2.585604428004690
C       1.386356266358880     -2.657307336268510      2.533878841486770
C      -1.914945640221530     -1.471300181972490      2.992773967519400
C      -2.219673314880820     -0.074019672010940      3.120677769104760
C      -1.272141564375750      0.806756473216360      3.634576939402680
C      -0.667757948171420     -1.953684669178680      3.374763999029030
C       1.001109854342500      1.311314479575500      3.573412766164020
C       2.195710023347420      0.907521533028480      2.984850277134820
C       2.496048769583980     -0.491859607995660      2.850926274215900
C       1.600952474718100     -1.448921552064450      3.299718735257500
C       0.039131163222580      0.317488374256650      3.982540564393690
C       0.334143356336500     -1.033536427994430      3.848187311550830
H      -1.870860315337870      2.509793466727440     -4.551762344831350
H       0.353368265393950      2.876911130510230     -4.876770919142080
H       1.525819996934740      0.846752443668500     -5.161342571995620
H      -3.421472604830000     -0.467501616338890     -3.629755283089450
H      -1.895162850699620      0.219898787538350     -5.241648678234280
H       2.196593298959950     -2.137182998383870     -3.968622072162280
H       1.421701681845190      3.793485054704040     -3.090428490319280
H       2.836013083643510      3.876652956052970     -0.330401683558350
