74

C       3.218970000000000      0.003535000000000     -1.324063000000000
C       3.411559000000000      1.026342000000000     -0.110041000000000
C       3.114924000000000      0.143509000000000      1.180650000000000
C       3.169046000000000     -1.465528000000000     -0.741080000000000
C       2.799700000000000     -1.225428000000000      0.679132000000000
C       1.995410000000000     -2.216407000000000     -1.552701000000000
C       1.900848000000000      0.120507000000000     -1.992267000000000
C       1.321990000000000     -1.088956000000000     -2.255464000000000
C       1.205816000000000      1.346047000000000     -2.195945000000000
C       2.296333000000000      2.221940000000000     -0.030725000000000
C       1.290705000000000      2.347456000000000     -1.176909000000000
C       1.861629000000000      0.698553000000000      1.802515000000000
C       1.452934000000000      1.891232000000000      1.196766000000000
C       1.002517000000000     -0.062672000000000      2.571469000000000
C       1.943752000000000     -2.000383000000000      1.336950000000000
C       1.287727000000000     -1.563611000000000      2.646315000000000
C       0.920086000000000     -2.912989000000000     -0.718661000000000
C       1.076841000000000     -2.959053000000000      0.658485000000000
C      -0.406535000000000     -3.103630000000000     -1.276668000000000
C       0.031651000000000     -1.208357000000000     -2.843095000000000
C      -0.845541000000000     -2.286533000000000     -2.428458000000000
C       0.069736000000000      1.257402000000000     -3.012917000000000
C      -0.493644000000000     -0.022552000000000     -3.380762000000000
C      -1.003835000000000      2.189951000000000     -2.888767000000000
C       0.168370000000000      3.125170000000000     -0.944373000000000
C      -0.964719000000000      3.073712000000000     -1.810840000000000
C       0.200726000000000      2.426835000000000      1.443608000000000
C      -0.315990000000000      3.483186000000000      0.470733000000000
C      -0.277786000000000      0.467831000000000      2.918725000000000
C      -0.677937000000000      1.760030000000000      2.365978000000000
C      -1.291497000000000     -0.425978000000000      3.380557000000000
C       0.020403000000000     -2.371553000000000      2.651697000000000
C      -0.016455000000000     -3.254454000000000      1.527047000000000
C      -1.141163000000000     -1.874219000000000      3.163563000000000
C      -1.419513000000000     -3.611836000000000     -0.426867000000000
C      -1.232010000000000     -3.667874000000000      0.998555000000000
C      -2.824375000000000     -3.350329000000000     -0.652027000000000
C      -2.222281000000000     -2.114770000000000     -2.670360000000000
C      -3.222999000000000     -2.631353000000000     -1.759073000000000
C      -1.903450000000000      0.151049000000000     -3.567036000000000
C      -2.239459000000000      1.526046000000000     -3.246617000000000
C      -2.754764000000000     -0.883521000000000     -3.223128000000000
C      -3.413081000000000      1.803013000000000     -2.560523000000000
C      -2.180745000000000      3.329444000000000     -1.067725000000000
C      -1.820541000000000      3.433666000000000      0.308147000000000
C      -3.388331000000000      2.735315000000000     -1.445229000000000
C      -2.065423000000000      2.086950000000000      2.356241000000000
C      -2.631620000000000      2.899429000000000      1.269574000000000
C      -2.654558000000000     -0.117547000000000      3.225416000000000
C      -3.040351000000000      1.139976000000000      2.729327000000000
C      -2.413894000000000     -2.389951000000000      2.717366000000000
C      -2.464340000000000     -3.293744000000000      1.650509000000000
C      -3.471066000000000     -3.132621000000000      0.630536000000000
C      -3.375275000000000     -1.317111000000000      2.799732000000000
C      -4.443569000000000     -2.140405000000000      0.749301000000000
C      -4.391867000000000     -1.212606000000000      1.862011000000000
C      -4.304199000000000     -1.670865000000000     -1.662885000000000
C      -4.017051000000000     -0.587832000000000     -2.573733000000000
C      -4.327744000000000      0.728756000000000     -2.225504000000000
C      -4.881511000000000     -1.405364000000000     -0.420270000000000
C      -4.283580000000000      2.239820000000000     -0.430922000000000
C      -3.910609000000000      2.335735000000000      0.911869000000000
C      -4.178348000000000      1.245792000000000      1.821715000000000
C      -4.813044000000000      0.097443000000000      1.372751000000000
C      -4.887323000000000      1.011599000000000     -0.916508000000000
C      -5.149105000000000     -0.033796000000000     -0.032550000000000
Cl      4.413048000000000      0.202568000000000     -2.684860000000000
Cl      5.082610000000000      1.646487000000000     -0.116671000000000
Cl      4.442614000000000      0.125401000000000      2.436430000000000
Cl      2.290388000000000     -2.016292000000000      4.131228000000000
Cl      4.764284000000000     -2.315725000000000     -0.736082000000000
Cl      2.633529000000000     -3.427671000000000     -2.778126000000000
Cl      3.086165000000000      3.860002000000000      0.168735000000000
Cl      0.110701000000000      5.192250000000000      1.050213000000000
