74

C      -1.318503659103890      1.891506579351730     -3.937953892821800
C       0.200096984407990      2.215152699273890     -3.970711082662720
C       0.972079503024030      0.890695780936280     -4.302235653032740
C      -1.295314981584070      0.396384887018960     -3.894721472204770
C      -0.072695582751970     -0.168190482740470     -4.158338434245240
C      -2.119666976941400     -0.133043419084120     -2.896344318359920
C      -2.167207509458530      2.264599868184370     -2.684982529872690
C      -2.625099098035850      0.920565569581770     -2.118829277082910
C      -1.445882363359010      2.940116164866720     -1.542803821276770
C       0.727980215801720      2.581505432541790     -2.622971239442260
C      -0.031368893653020      3.172661188739810     -1.593817566672140
C       1.898729833513470      0.669005733686450     -3.118340265039730
C       1.853622525371510      1.829850845507470     -2.287826975261130
C       2.235315154275270     -0.535120038393710     -2.570536535748910
C       0.208181960256050     -1.415785570874560     -3.620394611481130
C       1.609096086091600     -1.797998393888370     -3.183110756111010
C      -1.898869933300520     -1.411425189350000     -2.354065596670070
C      -0.754801151826000     -2.083969388947990     -2.861854729032360
C      -2.410685484168340     -1.678265514043940     -1.048912624152160
C      -3.015798818594880      0.684972553525630     -0.827847679401810
C      -2.970843304605720     -0.644429859034140     -0.308741355344650
C      -2.059345961962950      2.884042764402420     -0.315860590446450
C      -3.195977885720970      1.923235482155400      0.030584210478900
C      -1.370053173676120      3.229192028403210      0.879905165719420
C       0.664460631063050      3.406886269575820     -0.391052881864730
C      -0.020130748593870      3.547123121338080      0.851300206710460
C       2.434536389097720      1.839449881824650     -0.999946664143310
C       1.931841203801050      2.809487880164660     -0.121175547169090
C       2.871488886011920     -0.582545372774190     -1.263747772395870
C       3.035679453833560      0.635545293306030     -0.498869473074920
C       2.928034870823070     -1.801480916260380     -0.569036777609910
C       1.302782869166920     -2.804634690527760     -2.106969574353190
C      -0.092651526096420     -3.044675965392970     -2.015929212521840
C       2.053211513840920     -2.900660904239720     -0.963648800529360
C      -2.087733467637270     -3.042626785284680     -0.443880206231170
C      -0.693425991511190     -3.482247062343960     -0.859995603201350
C      -1.911817701693530     -2.925755028051350      1.049552693420090
C      -3.376077508043980     -0.867108101146300      1.148988331914130
C      -2.506477830731050     -1.937106589491990      1.774220890636540
C      -2.896684249930280      1.601855058549160      1.472102356890650
C      -1.901984232753760      2.486419698892830      1.984215543937530
C      -2.998172636029360      0.341346408654140      1.981652315404970
C      -1.072891164724660      2.118684609063160      3.040757800935610
C       0.847539224119130      3.117830681452390      1.914583690268880
C       2.064029040569470      2.662644090537450      1.297313911403970
C       0.333910124150710      2.435261775837280      3.005838713508570
C       3.251929806488270      0.562734857483060      0.893106771818640
C       2.735621386253890      1.564055560312170      1.795555557041210
C       3.020760907451690     -1.847108480770370      0.852785411358430
C       3.209022572709590     -0.682410205458320      1.582413747158360
C       1.488434661083080     -3.462985599328230      0.219621046837050
C       0.116009602459660     -3.739075716597530      0.266774655078010
C      -0.637345550929920     -3.431263293877460      1.449314828622290
C       2.126369865713630     -2.860824118041550      1.355973804931370
C       0.010072419336060     -2.938845311986320      2.577680120572400
C       1.422272328461780     -2.643328659283590      2.529119756610380
C      -1.865658194443730     -1.442020749252600      2.946726983259550
C      -2.164641359664090     -0.047185599615170      3.073306641248330
C      -1.219250614958610      0.820580706244330      3.614307457935120
C      -0.628142087479860     -1.931904694566440      3.359692560243180
C       1.054921737244620      1.318951460782470      3.560882717936980
C       2.254383921371490      0.906747531417990      2.982722803228280
C       2.550931810037820     -0.492874044067330      2.851142492267210
C       1.644972258863540     -1.445513942003670      3.300869440600710
C       0.090674183832170      0.329783161920320      3.969204336600170
C       0.380400074372650     -1.020619617257860      3.842182398887050
H      -1.798823492117710      2.281629332843190     -4.839009520617420
H       0.412375182504380      3.010486421398110     -4.690150507950440
H       1.501004736414190      0.907744067090280     -5.256183701981290
H       2.238974517496000     -2.198374963866230     -3.983451012419450
H      -3.022667891204090      2.882731310338810     -2.977319734838130
H      -4.189708359395010      2.358218578713930     -0.120687495950420
H      -4.445838928482210     -1.101810921477410      1.196363884349000
H      -2.860238782484720     -3.766295135418670     -0.730905030011590
