75

C       3.386043000000000     -0.299965000000000     -1.183548000000000
C       3.420081000000000      1.100015000000000     -0.411532000000000
C       3.096849000000000      0.708541000000000      1.096971000000000
C       3.398908000000000     -1.465454000000000     -0.113932000000000
C       2.913633000000000     -0.772257000000000      1.109172000000000
C       2.343159000000000     -2.559735000000000     -0.649794000000000
C       2.113288000000000     -0.548179000000000     -1.902758000000000
C       1.642331000000000     -1.821473000000000     -1.737656000000000
C       1.345859000000000      0.455629000000000     -2.556696000000000
C       2.216177000000000      2.136064000000000     -0.809333000000000
C       1.283517000000000      1.755619000000000     -1.959704000000000
C       1.761733000000000      1.325507000000000      1.412798000000000
C       1.316396000000000      2.164661000000000      0.416180000000000
C       0.892027000000000      0.805881000000000      2.373279000000000
C       2.068238000000000     -1.336864000000000      1.965250000000000
C       1.284930000000000     -0.529400000000000      2.999186000000000
C       1.263235000000000     -3.010671000000000      0.333643000000000
C       1.321399000000000     -2.549200000000000      1.637091000000000
C      -0.004900000000000     -3.511109000000000     -0.174709000000000
C       0.409624000000000     -2.260537000000000     -2.294007000000000
C      -0.416752000000000     -3.202116000000000     -1.554542000000000
C       0.278259000000000     -0.022960000000000     -3.329893000000000
C      -0.161437000000000     -1.396189000000000     -3.238488000000000
C      -0.867712000000000      0.787348000000000     -3.588853000000000
C       0.089811000000000      2.453505000000000     -2.058517000000000
C      -0.971942000000000      1.989029000000000     -2.891553000000000
C      -0.014638000000000      2.626372000000000      0.410209000000000
C      -0.522581000000000      3.245638000000000     -0.887399000000000
C      -0.435029000000000      1.296391000000000      2.438607000000000
C      -0.874312000000000      2.251129000000000      1.451113000000000
C      -1.420946000000000      0.540137000000000      3.189112000000000
C       0.084780000000000     -1.394220000000000      3.238286000000000
C       0.189397000000000     -2.611937000000000      2.506527000000000
C      -1.153258000000000     -0.849992000000000      3.487190000000000
C      -1.038073000000000     -3.775509000000000      0.761015000000000
C      -0.950806000000000     -3.301711000000000      2.113166000000000
C      -2.438680000000000     -3.750785000000000      0.398223000000000
C      -1.781841000000000     -3.259670000000000     -1.900836000000000
C      -2.806909000000000     -3.516583000000000     -0.910801000000000
C      -1.566108000000000     -1.432320000000000     -3.531785000000000
C      -2.022726000000000     -0.075542000000000     -3.737107000000000
C      -2.362470000000000     -2.358302000000000     -2.878256000000000
C      -3.260984000000000      0.313232000000000     -3.244243000000000
C      -2.251385000000000      2.371040000000000     -2.335302000000000
C      -2.002416000000000      2.991652000000000     -1.074787000000000
C      -3.380164000000000      1.572821000000000     -2.530330000000000
C      -2.348944000000000      2.657998000000000      1.401826000000000
C      -2.847289000000000      2.774440000000000     -0.027906000000000
C      -2.819470000000000      0.642848000000000      2.854901000000000
C      -3.269515000000000      1.588174000000000      1.960623000000000
C      -2.350063000000000     -1.616805000000000      3.199944000000000
C      -2.253325000000000     -2.839227000000000      2.534938000000000
C      -3.195031000000000     -3.156815000000000      1.485275000000000
C      -3.399203000000000     -0.688751000000000      2.854588000000000
C      -4.253063000000000     -2.297744000000000      1.200975000000000
C      -4.361254000000000     -1.032797000000000      1.908389000000000
C      -3.962316000000000     -2.695536000000000     -1.211140000000000
C      -3.686426000000000     -1.978436000000000     -2.434543000000000
C      -4.116629000000000     -0.656419000000000     -2.588907000000000
C      -4.655060000000000     -2.071009000000000     -0.172732000000000
C      -4.300042000000000      1.380537000000000     -1.444173000000000
C      -4.018527000000000      1.970363000000000     -0.210634000000000
C      -4.281931000000000      1.249646000000000      1.015512000000000
C      -4.829831000000000     -0.038056000000000      0.974945000000000
C      -4.785183000000000      0.009954000000000     -1.489380000000000
C      -5.043808000000000     -0.679782000000000     -0.307898000000000
Cl      4.656849000000000     -0.488778000000000     -2.474059000000000
Cl      5.036586000000000      1.831244000000000     -0.573274000000000
Cl      4.322399000000000      1.259161000000000      2.331366000000000
Cl      2.202698000000000     -0.314214000000000      4.593385000000000
Cl      5.045849000000000     -2.107218000000000      0.263339000000000
Cl      3.150864000000000     -4.062426000000000     -1.330907000000000
Cl      2.864320000000000      3.808060000000000     -1.173240000000000
Cl     -0.252365000000000      5.068754000000000     -0.922204000000000
Cl     -2.546034000000000      4.252437000000000      2.336678000000000
