75

C      -3.375936000000000      1.325673000000000     -0.379852000000000
C      -3.278934000000000      0.286244000000000     -1.588877000000000
C      -3.304430000000000     -1.181508000000000     -0.979063000000000
C      -3.189475000000000      0.429200000000000      0.928814000000000
C      -3.032868000000000     -0.984886000000000      0.471261000000000
C      -1.883021000000000      0.851141000000000      1.530327000000000
C      -2.143041000000000      2.393723000000000     -0.304571000000000
C      -1.351533000000000      1.965655000000000      0.920533000000000
C      -1.121747000000000      2.413409000000000     -1.446557000000000
C      -1.984701000000000      0.297939000000000     -2.328192000000000
C      -1.147133000000000      1.419348000000000     -2.491116000000000
C      -2.095179000000000     -1.871322000000000     -1.596493000000000
C      -1.504216000000000     -0.993478000000000     -2.555740000000000
C      -1.322669000000000     -2.797710000000000     -0.955960000000000
C      -2.299660000000000     -1.854149000000000      1.155380000000000
C      -1.680091000000000     -3.089987000000000      0.507215000000000
C      -1.107478000000000      0.001987000000000      2.318174000000000
C      -1.562810000000000     -1.455168000000000      2.423975000000000
C       0.210019000000000      0.400444000000000      2.654248000000000
C      -0.028208000000000      2.360663000000000      1.184728000000000
C       0.735273000000000      1.622271000000000      2.098276000000000
C       0.077210000000000      3.052999000000000     -1.192597000000000
C       0.587910000000000      3.372005000000000      0.226789000000000
C       1.212539000000000      2.883458000000000     -2.048486000000000
C       0.002627000000000      1.202342000000000     -3.284725000000000
C       1.171042000000000      2.012961000000000     -3.132893000000000
C      -0.224463000000000     -1.243185000000000     -3.113022000000000
C       0.431869000000000     -0.121105000000000     -3.653254000000000
C       0.004103000000000     -3.123142000000000     -1.483843000000000
C       0.529265000000000     -2.384017000000000     -2.632421000000000
C       0.933222000000000     -3.774569000000000     -0.643253000000000
C      -0.444968000000000     -3.278833000000000      1.339234000000000
C      -0.386936000000000     -2.374877000000000      2.403467000000000
C       0.722478000000000     -3.795356000000000      0.800134000000000
C       1.127861000000000     -0.598858000000000      3.166680000000000
C       0.835722000000000     -1.985805000000000      2.941840000000000
C       2.554224000000000     -0.426912000000000      3.010359000000000
C       2.209180000000000      1.976833000000000      2.311449000000000
C       3.077958000000000      0.752121000000000      2.535763000000000
C       2.077080000000000      3.156366000000000      0.085186000000000
C       2.435083000000000      3.008301000000000     -1.289361000000000
C       2.827630000000000      2.565166000000000      1.055389000000000
C       3.578004000000000      2.294859000000000     -1.656267000000000
C       2.335387000000000      1.222557000000000     -3.477267000000000
C       1.860377000000000     -0.103649000000000     -3.805407000000000
C       3.524546000000000      1.371876000000000     -2.775359000000000
C       1.924943000000000     -2.384790000000000     -2.883620000000000
C       2.592540000000000     -1.224144000000000     -3.445365000000000
C       2.347386000000000     -3.669095000000000     -0.859675000000000
C       2.842056000000000     -3.006937000000000     -1.975353000000000
C       1.980599000000000     -3.545776000000000      1.443023000000000
C       2.040236000000000     -2.645233000000000      2.512134000000000
C       3.124496000000000     -1.694203000000000      2.592971000000000
C       3.009736000000000     -3.512589000000000      0.424749000000000
C       4.155437000000000     -1.719508000000000      1.658979000000000
C       4.093910000000000     -2.653782000000000      0.543553000000000
C       4.167034000000000      0.731886000000000      1.615702000000000
C       4.012659000000000      1.839981000000000      0.701079000000000
C       4.398352000000000      1.707014000000000     -0.633687000000000
C       4.707323000000000     -0.482139000000000      1.170639000000000
C       4.317193000000000      0.206807000000000     -2.432865000000000
C       3.873162000000000     -1.070879000000000     -2.790475000000000
C       4.028293000000000     -2.177472000000000     -1.873189000000000
C       4.622974000000000     -1.978223000000000     -0.628846000000000
C       4.883603000000000      0.424351000000000     -1.117894000000000
C       5.028709000000000     -0.644004000000000     -0.235128000000000
Cl     -4.970877000000000      2.122219000000000     -0.396679000000000
Cl     -4.504515000000000      0.548176000000000     -2.910240000000000
Cl     -4.830905000000000     -2.121382000000000     -1.244010000000000
Cl     -2.785319000000000     -4.570869000000000      0.648511000000000
Cl     -4.505592000000000      0.577105000000000      2.182156000000000
Cl     -2.557216000000000     -1.746661000000000      3.965597000000000
Cl     -2.754549000000000      4.108659000000000     -0.107717000000000
Cl      0.321286000000000      5.104556000000000      0.800599000000000
Cl      2.325892000000000      3.142095000000000      3.753063000000000
