75

C      -3.484081000000000     -0.714847000000000     -0.981037000000000
C      -3.676629000000000      0.311888000000000      0.253665000000000
C      -3.081148000000000      1.713483000000000     -0.319624000000000
C      -2.655161000000000      0.055916000000000     -1.934780000000000
C      -2.543521000000000      1.400229000000000     -1.678443000000000
C      -1.661665000000000     -0.686069000000000     -2.562595000000000
C      -2.637807000000000     -2.057726000000000     -0.805565000000000
C      -1.554975000000000     -1.952773000000000     -1.918207000000000
C      -1.871636000000000     -2.191274000000000      0.496114000000000
C      -2.762340000000000      0.017810000000000      1.547784000000000
C      -1.943088000000000     -1.267337000000000      1.564778000000000
C      -1.854179000000000      2.006458000000000      0.508936000000000
C      -1.734920000000000      1.147012000000000      1.580749000000000
C      -0.744139000000000      2.746878000000000      0.046504000000000
C      -1.458965000000000      2.073178000000000     -2.207341000000000
C      -0.740619000000000      3.176465000000000     -1.433871000000000
C      -0.557383000000000     -0.037175000000000     -3.157280000000000
C      -0.542000000000000      1.388203000000000     -3.030414000000000
C       0.683462000000000     -0.769246000000000     -3.280875000000000
C      -0.361436000000000     -2.621749000000000     -1.916224000000000
C       0.782921000000000     -2.089091000000000     -2.657938000000000
C      -0.841260000000000     -3.136333000000000      0.468663000000000
C      -0.175487000000000     -3.656447000000000     -0.818559000000000
C       0.076412000000000     -3.237724000000000      1.521010000000000
C      -0.966160000000000     -1.317275000000000      2.567943000000000
C       0.015508000000000     -2.318384000000000      2.575105000000000
C      -0.566505000000000      1.110169000000000      2.344351000000000
C      -0.393557000000000     -0.074796000000000      3.271343000000000
C       0.425752000000000      2.771622000000000      0.816377000000000
C       0.517282000000000      1.969333000000000      2.009115000000000
C       1.679033000000000      3.474042000000000      0.268066000000000
C       0.660454000000000      3.087383000000000     -1.997020000000000
C       0.708956000000000      2.095153000000000     -3.027132000000000
C       1.769893000000000      3.308873000000000     -1.241195000000000
C       1.867058000000000     -0.019616000000000     -3.506351000000000
C       1.876444000000000      1.425574000000000     -3.330471000000000
C       3.140803000000000     -0.503941000000000     -3.092508000000000
C       2.075912000000000     -2.580530000000000     -2.355752000000000
C       3.238088000000000     -1.776096000000000     -2.528998000000000
C       1.263797000000000     -3.808032000000000     -0.376759000000000
C       1.365759000000000     -3.698843000000000      1.039499000000000
C       2.307480000000000     -3.418015000000000     -1.170046000000000
C       2.542584000000000     -3.260344000000000      1.642878000000000
C       1.246206000000000     -1.832740000000000      3.172718000000000
C       1.051846000000000     -0.456755000000000      3.459104000000000
C       2.482415000000000     -2.306634000000000      2.736610000000000
C       1.817898000000000      1.712150000000000      2.598434000000000
C       2.068485000000000      0.447960000000000      3.251968000000000
C       2.963784000000000      2.809536000000000      0.723496000000000
C       3.018652000000000      2.066382000000000      1.881370000000000
C       3.014902000000000      2.693565000000000     -1.595797000000000
C       3.092112000000000      1.789678000000000     -2.662678000000000
C       3.905934000000000      0.600491000000000     -2.543561000000000
C       3.770968000000000      2.439655000000000     -0.393157000000000
C       4.694013000000000      0.398972000000000     -1.415178000000000
C       4.640971000000000      1.342106000000000     -0.321001000000000
C       4.145612000000000     -2.003992000000000     -1.412774000000000
C       3.559754000000000     -3.015787000000000     -0.571388000000000
C       3.678210000000000     -2.925895000000000      0.820444000000000
C       4.835918000000000     -0.933299000000000     -0.850276000000000
C       3.581369000000000     -1.384899000000000      2.587255000000000
C       3.377571000000000     -0.029840000000000      2.851230000000000
C       3.968204000000000      0.975165000000000      2.004053000000000
C       4.750785000000000      0.601760000000000      0.912962000000000
C       4.340966000000000     -1.779523000000000      1.410540000000000
C       4.908957000000000     -0.805326000000000      0.592912000000000
Cl     -5.036425000000000     -1.023950000000000     -1.889538000000000
Cl     -5.398772000000000      0.441497000000000      0.689922000000000
Cl     -4.221092000000000      3.120974000000000     -0.296630000000000
Cl     -1.436083000000000      4.855080000000000     -1.667783000000000
Cl     -3.662386000000000     -3.562250000000000     -0.953428000000000
Cl     -0.763977000000000     -5.327553000000000     -1.369834000000000
Cl      1.634972000000000      5.252861000000000      0.792488000000000
Cl     -3.748431000000000      0.021777000000000      3.097468000000000
Cl     -1.051735000000000      0.284364000000000      4.974566000000000
