63

C      -1.318743750544179      0.006236406485483      3.592494780107213
C      -0.404005841738176     -1.159077202013212      3.314568847928390
C       0.972109147871003     -0.727546315338564      3.252650295889956
C       0.957707288269391      0.701609039202573      3.240668989447519
C      -0.395878954171783      1.155995079347875      3.281168808842698
C       2.353161742880983     -2.580402496217326      0.573361886740673
C       3.164653382383343     -1.413794495374106      0.563791234477419
C       2.901014262502175     -0.697689757495698      1.796681848144347
C       1.944237543669209     -1.419310505067247      2.555070399453850
C       1.700586942805437     -2.763665526031029      1.922162844700965
C       3.162039806447292      1.412669066937035      0.564390902488347
C       2.320823964945803      2.584125587412028      0.557728565330571
C       1.559001499757195      2.569506470961266      1.774843711107606
C       1.915671167350601      1.405691307575014      2.524002116718489
C       2.904419006422824      0.695537490157118      1.780799349074535
C      -0.373439484111903      3.425669022420955      0.571690179823187
C      -1.734906557118546      2.973851411866196      0.567762961753857
C      -1.988946962196144      2.268222403842798      1.790868645804923
C      -0.739067181640428      2.258886998175729      2.557203098774785
C       0.236205921858263      2.972764853338473      1.788345160695721
C      -3.369633297606261      0.725200773550051      0.574194171649169
C      -3.364356017402188     -0.702008141499590      0.576643600165778
C      -2.787122050999743     -1.143460134954088      1.809172503719804
C      -2.652437420596315      0.013608115476510      2.767208955881457
C      -2.793166324672868      1.170639739631025      1.811317875632516
C      -1.722224325127905     -2.935995612854181      0.578115945757465
C      -0.346995490218964     -3.386577840828904      0.600326270772743
C       0.232842765117284     -2.969207065677199      1.807949136907856
C      -0.735224432383391     -2.256533553316240      2.571701973132465
C      -1.979268029660276     -2.236588174100511      1.794017415807971
C      -0.228562923327730     -2.988974574088791     -1.813190995529901
C       0.765138092333264     -2.269799458190043     -2.577129551924209
C       1.981422151775491     -2.266745120256382     -1.816192049555107
C       1.760998310321887     -2.995115308566247     -0.595843550878027
C       0.374986165368139     -3.428284469329332     -0.601712410080092
C       2.793134108974496     -1.144578855777825     -1.835959329694606
C       2.417531133896945      0.018149694045681     -2.595649175213979
C       2.792776074400079      1.185296246226359     -1.842594418380503
C       3.391698310141206      0.727446617264432     -0.614541858656652
C       3.389075996972883     -0.707232763646061     -0.611335064782376
C       1.973957748261181      2.300168367890441     -1.843718044010138
C       0.752236525353165      2.297057886877018     -2.599447985343420
C      -0.240286424183527      3.009728161966967     -1.842862281634729
C       0.359636625131013      3.441968426034564     -0.607461116181718
C       1.733430641677296      3.013100351856032     -0.615761569323380
C      -1.554938147877746      2.574747434245400     -1.845262764686391
C      -1.930193451461530      1.418637843594198     -2.610172986340435
C      -2.913994677906387      0.697638405777057     -1.834505034377106
C      -3.144642210511471      1.410367184673254     -0.609499622071656
C      -2.311318244516646      2.570876154875156     -0.622122213534653
C      -2.914555813278296     -0.683649374921979     -1.833929516770913
C      -1.921785373277573     -1.404803735585854     -2.601974678476621
C      -1.549541132830397     -2.556847493951038     -1.835643689710521
C      -2.299552855380151     -2.545130561624240     -0.609591576334981
C      -3.143355615091742     -1.392361616677389     -0.608979776177801
C      -0.971225148796048     -0.712231214277840     -3.329398768228671
C      -0.974004859902725      0.727236517279647     -3.331582233516027
C       0.393344679113070      1.174210143524447     -3.330906730853670
C       1.241492353509345      0.013621194350519     -3.324705280882056
C       0.398310220093816     -1.155806020366856     -3.311224338546974
Cl     -1.642670795727944      0.029734627412578      5.383905881598332
Cl     -4.108339333419273     -0.023569338311479      3.852881372850301
Cl      2.440501978524586     -4.160670193189352      2.843114655745017
