62

C       0.206935260558906     -0.076782320563125     -3.775730131676280
C       0.271118528299743      1.339008304217894     -3.260003032849733
C      -1.020717096407032      1.772453399373493     -2.832591287273411
C      -1.160899269002911     -0.495551540279189     -3.303179657963032
C      -1.908539446751399      0.634610736888211     -2.872459902723575
C      -1.404195166373386     -1.720470830717004     -2.727899531814206
C      -0.309187246037932     -2.598534288294446     -2.346235684440812
C       1.273358769392710     -0.919894559391114     -3.159015818505248
C       0.999452953905734     -2.177972257970671     -2.572051458331911
C       2.415575301282692     -0.366936255047266     -2.536441749547917
C       1.384197428098935      1.851300998109045     -2.645090231140448
C       2.505516538671964      0.995148945300835     -2.270432945080601
C       1.245929325589688      2.837550441803310     -1.607216031580541
C      -1.163244565079464      2.730231031482617     -1.837375620743370
C      -0.005776357754061      3.277298961122593     -1.201220198394277
C      -2.195122674623054      2.595893566578230     -0.837293883210558
C      -2.898546905938875      0.513485355687574     -1.900043986638937
C      -3.051653952962777      1.501453011761705     -0.882490305160962
C      -2.417765202954461     -1.855452216797514     -1.717197337545290
C      -3.170385157545282     -0.768470329780583     -1.314253063324278
C      -0.649772622091755     -3.259551096157897     -1.132722954118501
C      -1.964162398792081     -2.806775745760131     -0.736503644672778
C       0.311679243126428     -3.506330311383267     -0.157239180719448
C       2.010923348543277     -2.438879912678172     -1.559131910790418
C       2.893096202849074     -1.315239367242198     -1.535504844804111
C       1.672893903178603     -3.084379296908544     -0.384528883400761
C       3.408433343104457     -0.864005853374643     -0.340656098457854
C       3.015801208579153      1.453122100586614     -1.022173230817509
C       2.243247121210361      2.600380559814036     -0.611229344900329
C       3.468234306120626      0.554755518393120     -0.061591160382235
C       1.947542173205693      2.802181863668656      0.730450416945596
C      -0.300109112944495      3.492373210394262      0.190391582929384
C      -1.681131337783472      3.070361754710711      0.403527181354147
C       0.664221269847884      3.275613397570605      1.139897825175060
C      -1.997476597302952      2.422170825656874      1.593053495727803
C      -3.413532356202266      0.839041472529812      0.352694478859434
C      -3.486565063448537     -0.570782293460907      0.075124672766704
C      -2.900442807291160      1.277040110077938      1.553709235045327
C      -2.259165102983789     -2.621402117618640      0.599685928473252
C      -3.040085164499345     -1.484956807448636      1.019642767648635
C       0.004482515553917     -3.300363801924548      1.224687349466954
C      -1.256794964715210     -2.867822379330778      1.609826008059174
C       2.206959145382394     -2.620789962078513      0.867225975055086
C       3.061162671075722     -1.526918879261957      0.888919500655530
C       1.171256019144464     -2.738620287004128      1.863518728215266
C       3.155726794189631      0.758577911219714      1.315142367693138
C       2.414198911781103      1.864391910537881      1.723823355632004
C       2.907722153209694     -0.524416458056552      1.908771218693905
C       0.343694790430073      2.787589953346350      2.530827746303919
C      -1.018315538150290      2.178588784064202      2.583113790692485
C       1.414795620190359      1.746887538488084      2.728463276792262
C      -2.437761591574019      0.337702154688051      2.526151941077853
C      -2.505755039531334     -1.018827367169727      2.270272636394822
C      -1.405149224417626     -1.878797109643962      2.632545801409202
C      -1.257604765961565      0.907915675195521      3.157813044708325
C       1.034033138569232     -1.775020884279235      2.842961968633135
C       1.912820162204023     -0.634962820030502      2.862157136234228
C       1.159655143904431      0.515208771041364      3.282890608804568
C      -0.281695441487381     -1.328690088018616      3.242505241846748
C      -0.205125728113027      0.066511508430011      3.512839777572912
Cl      0.368932195359542     -0.161971201732192     -5.599797844639226
Cl      0.446607562199595      4.128326942045318      3.777326553511090
