74

C      -3.345965000000000     -1.297017000000000     -0.138078000000000
C      -3.471245000000000     -0.346679000000000      1.150201000000000
C      -3.101440000000000      1.099308000000000      0.588657000000000
C      -3.242729000000000     -0.383094000000000     -1.425669000000000
C      -2.793937000000000      0.916565000000000     -0.856792000000000
C      -2.116713000000000     -1.062871000000000     -2.355734000000000
C      -2.076833000000000     -2.066615000000000     -0.197553000000000
C      -1.497931000000000     -2.059879000000000     -1.437148000000000
C      -1.401246000000000     -2.592753000000000      0.937708000000000
C      -2.350790000000000     -0.608078000000000      2.300890000000000
C      -1.431832000000000     -1.819755000000000      2.141374000000000
C      -1.816972000000000      1.489840000000000      1.265521000000000
C      -1.459089000000000      0.613892000000000      2.239766000000000
C      -0.877734000000000      2.396769000000000      0.692075000000000
C      -1.892342000000000      1.689224000000000     -1.455423000000000
C      -1.170240000000000      2.835068000000000     -0.742941000000000
C      -0.990518000000000     -0.151907000000000     -2.839002000000000
C      -1.061778000000000      1.199471000000000     -2.552042000000000
C       0.304165000000000     -0.727865000000000     -3.174021000000000
C      -0.240136000000000     -2.670579000000000     -1.698381000000000
C       0.670924000000000     -2.054552000000000     -2.658730000000000
C      -0.302173000000000     -3.420631000000000      0.655962000000000
C       0.250645000000000     -3.496176000000000     -0.679011000000000
C       0.776281000000000     -3.570879000000000      1.586167000000000
C      -0.285064000000000     -1.815666000000000      2.922001000000000
C       0.793419000000000     -2.736749000000000      2.701920000000000
C      -0.159651000000000      0.658222000000000      2.820820000000000
C       0.330137000000000     -0.545627000000000      3.374460000000000
C       0.375230000000000      2.536131000000000      1.265598000000000
C       0.758050000000000      1.689541000000000      2.383145000000000
C       1.439363000000000      3.387069000000000      0.551147000000000
C       0.102891000000000      2.949031000000000     -1.532847000000000
C       0.078898000000000      2.050302000000000     -2.646553000000000
C       1.287862000000000      3.287206000000000     -0.959268000000000
C       1.364976000000000      0.161181000000000     -3.483471000000000
C       1.257224000000000      1.566982000000000     -3.191712000000000
C       2.751760000000000     -0.195595000000000     -3.302095000000000
C       2.031473000000000     -2.405290000000000     -2.561277000000000
C       3.084262000000000     -1.461086000000000     -2.864334000000000
C       1.653290000000000     -3.785749000000000     -0.561131000000000
C       1.995564000000000     -3.815892000000000      0.846068000000000
C       2.526555000000000     -3.255756000000000     -1.491477000000000
C       3.197782000000000     -3.259067000000000      1.268530000000000
C       2.035944000000000     -2.115522000000000      3.108682000000000
C       1.717647000000000     -0.751777000000000      3.507956000000000
C       3.213088000000000     -2.383503000000000      2.427122000000000
C       2.134158000000000      1.517349000000000      2.686916000000000
C       2.613293000000000      0.287191000000000      3.201123000000000
C       2.849271000000000      2.857512000000000      0.746346000000000
C       3.177469000000000      2.071382000000000      1.814288000000000
C       2.518692000000000      2.861972000000000     -1.557143000000000
C       2.519208000000000      2.041784000000000     -2.691495000000000
C       3.471011000000000      0.961724000000000     -2.792031000000000
C       3.495841000000000      2.648225000000000     -0.516268000000000
C       4.454583000000000      0.793189000000000     -1.823381000000000
C       4.478220000000000      1.664530000000000     -0.660154000000000
C       4.167360000000000     -1.647588000000000     -1.916522000000000
C       3.819542000000000     -2.761077000000000     -1.066189000000000
C       4.134600000000000     -2.732304000000000      0.295855000000000
C       4.824032000000000     -0.537180000000000     -1.385894000000000
C       4.171627000000000     -1.316505000000000      2.164162000000000
C       3.890075000000000     -0.017615000000000      2.564029000000000
C       4.235524000000000      1.095670000000000      1.708936000000000
C       4.866036000000000      0.877053000000000      0.482879000000000
C       4.764783000000000     -1.554657000000000      0.859072000000000
C       5.106583000000000     -0.482705000000000      0.037607000000000
Cl     -4.636644000000000     -2.574890000000000     -0.262062000000000
Cl     -5.130708000000000     -0.410494000000000      1.793975000000000
Cl     -4.354229000000000      2.396067000000000      0.870267000000000
Cl     -2.094731000000000      4.423463000000000     -0.822755000000000
Cl     -4.825992000000000     -0.071867000000000     -2.242394000000000
Cl     -2.819780000000000     -1.917628000000000     -3.823551000000000
Cl      1.309268000000000      5.129827000000000      1.166279000000000
Cl     -3.071766000000000     -0.726410000000000      3.996753000000000
