62

C       0.213723727682509     -0.062065263084651     -3.785116356896535
C       0.289793085419743      1.355739412060116     -3.253724215078172
C      -0.985117252453363      1.764003486674858     -2.809167507877595
C      -1.164118649006851     -0.487727988751054     -3.313355517250601
C      -1.862891049310671      0.595623593783510     -2.834260236631910
C      -1.523206080349510     -1.881644320937305     -2.921858878173874
C      -0.328812235174602     -2.604910385677822     -2.350988032734844
C       1.262413257215395     -0.890454045304098     -3.140109570388997
C       0.962355301151446     -2.151821392026009     -2.548820054406683
C       2.395974399281782     -0.338857703606536     -2.510476996232444
C       1.404390390442145      1.881732780591859     -2.632240512476909
C       2.507514181302075      1.030911091864569     -2.252152194034307
C       1.256364118088719      2.866889954198443     -1.598050451942086
C      -1.156517281719997      2.734285672012913     -1.831827526598763
C      -0.001277760245129      3.303189333170232     -1.206615182103660
C      -2.186361996387740      2.605189480500052     -0.836504239800780
C      -2.904898721527737      0.509205670355042     -1.874506686996386
C      -3.034204568979741      1.496657095246837     -0.872765216182199
C      -2.446693643123691     -1.886752574067515     -1.721341821853829
C      -3.168593771585603     -0.788382428072626     -1.305547158297137
C      -0.656484016865474     -3.235526776656801     -1.124907727294095
C      -1.975253429537153     -2.789898448507317     -0.732639299440691
C       0.304397693752403     -3.473528187457265     -0.144402596420184
C       1.974186817246257     -2.402933098815632     -1.537683331071375
C       2.863472432827749     -1.284424125074465     -1.510814346815704
C       1.657971379845805     -3.053232948124876     -0.364361804750570
C       3.394765136113916     -0.838305758951105     -0.318287062082665
C       3.034469446657861      1.477189211633190     -1.006226798784398
C       2.262566855753644      2.631098911828597     -0.596070359385648
C       3.480503993347802      0.576210260186233     -0.047812215787288
C       1.964564584296020      2.816630611930193      0.739562768729552
C      -0.312683869392027      3.505756953336542      0.182973051398954
C      -1.671431970107807      3.073259865137225      0.413959485112524
C       0.653894173207743      3.264819137503258      1.139773592672064
C      -2.003566355988529      2.434312170098570      1.597597219818574
C      -3.396383418064427      0.833083484123611      0.366497101829982
C      -3.458963109891397     -0.572691600919072      0.089111733121352
C      -2.882540316336033      1.289602059291956      1.561844831152852
C      -2.250505446681406     -2.605276697536252      0.620945388633761
C      -3.017186345870379     -1.472104164346582      1.042331286245221
C       0.008082162902995     -3.279905848499724      1.239991095398442
C      -1.253655704248633     -2.852606106614521      1.621549668683543
C       2.202364866532806     -2.601554900691104      0.888889192042739
C       3.056342050653101     -1.508550223978302      0.911349802156827
C       1.179383627084439     -2.738866485391283      1.889917054941340
C       3.167408119109606      0.778487850395380      1.336782183561018
C       2.428473161638673      1.881517316984080      1.732284592787195
C       2.910728079342244     -0.509476573505219      1.933485595144604
C       0.309895252908813      2.601680493834327      2.370098808841878
C      -0.996358618123314      2.190434567992956      2.589970058227676
C       1.403309384163077      1.741299785904881      2.729723884140858
C      -2.424462157310579      0.351382659052694      2.555646466156470
C      -2.489315031695246     -1.008273096544450      2.297978392708055
C      -1.392641351516692     -1.865041605740334      2.663544537756680
C      -1.257147690617080      0.905364820456576      3.186780764800629
C       1.042046870711321     -1.779330440697085      2.873683358541311
C       1.923155348369093     -0.641850409430407      2.895521860755917
C       1.155691073587884      0.504965337460756      3.307023439710151
C      -0.271038090191497     -1.333195211735729      3.270823029519770
C      -0.199565531650138      0.079179186748406      3.533813204258402
Cl      0.370328913766311     -0.181004328756531     -5.600128502317354
Cl     -2.215650612007476     -2.712479666201312     -4.392667353247568
