86

C       0.970385000000000      1.793656000000000     -3.488915000000000
C      -2.998824000000000      2.905541000000000     -1.629246000000000
C       0.982611000000000     -1.690285000000000      3.530150000000000
C      -2.905792000000000      0.670006000000000      3.220372000000000
C       0.271573000000000      0.608388000000000     -3.824907000000000
C      -1.767383000000000      3.602115000000000     -1.827026000000000
C       0.119206000000000     -2.742321000000000      3.088743000000000
C      -1.610469000000000      0.948600000000000      3.769047000000000
C      -1.189850000000000      0.604508000000000     -3.734650000000000
C      -1.040773000000000      4.163012000000000     -0.748571000000000
C      -0.901502000000000      2.121360000000000      3.447157000000000
C      -1.281751000000000     -2.561723000000000      2.976992000000000
C      -1.825148000000000      1.797463000000000     -3.333812000000000
C      -1.787011000000000     -1.356845000000000      3.525048000000000
C      -1.081207000000000      2.954387000000000     -2.932455000000000
C      -0.931475000000000     -0.314204000000000      3.976248000000000
C       0.292381000000000      2.949919000000000     -2.996121000000000
C       0.478786000000000     -0.414610000000000      3.896414000000000
C       1.079762000000000      3.561869000000000     -1.933700000000000
C       1.250044000000000      0.781059000000000      3.586000000000000
C       2.290258000000000      2.831851000000000     -1.828823000000000
C       2.512114000000000      0.577557000000000      2.964074000000000
C       2.261935000000000      1.767176000000000     -2.835152000000000
C       2.977008000000000     -0.713702000000000      2.557704000000000
C       2.906367000000000      0.586249000000000     -2.623702000000000
C       2.226836000000000     -1.816656000000000      2.808006000000000
C       2.278381000000000     -0.627295000000000     -3.022749000000000
C       2.097165000000000     -2.893602000000000      1.829076000000000
C       0.998582000000000     -0.637679000000000     -3.655007000000000
C       0.845476000000000     -3.511569000000000      2.095956000000000
C       0.279146000000000     -1.840468000000000     -3.563894000000000
C       0.152101000000000     -4.157638000000000      1.092196000000000
C      -1.175025000000000     -1.851424000000000     -3.577224000000000
C      -1.299087000000000     -4.081914000000000      1.033841000000000
C      -1.918180000000000     -0.649628000000000     -3.525054000000000
C      -2.025918000000000     -3.215136000000000      1.889534000000000
C      -3.183078000000000     -0.654548000000000     -2.784098000000000
C      -3.234943000000000     -2.577064000000000      1.365300000000000
C      -3.710983000000000      0.599475000000000     -2.242244000000000
C      -4.338560000000000      1.626329000000000     -0.057283000000000
C      -4.317782000000000      1.016833000000000      1.275949000000000
C      -3.711003000000000     -1.309017000000000      1.951544000000000
C      -3.042502000000000      1.791758000000000     -2.553478000000000
C      -3.582863000000000      2.796930000000000     -0.335214000000000
C      -3.523339000000000      1.575703000000000      2.314843000000000
C      -3.005387000000000     -0.751951000000000      3.031942000000000
C      -2.903302000000000      3.436006000000000      0.739284000000000
C      -2.860933000000000      2.807536000000000      2.069489000000000
C      -1.685665000000000      4.122505000000000      0.532275000000000
C      -1.609634000000000      3.098558000000000      2.664235000000000
C       0.428811000000000      4.134988000000000     -0.796976000000000
C       0.563940000000000      2.055222000000000      3.360184000000000
C       1.151794000000000      4.054229000000000      0.417986000000000
C       1.207132000000000      3.020027000000000      2.550733000000000
C       0.458920000000000      3.923561000000000      1.689356000000000
C      -0.904881000000000      3.964678000000000      1.746767000000000
C       2.922196000000000      2.601298000000000     -0.575736000000000
C       3.057396000000000      1.526921000000000      2.044234000000000
C       3.612177000000000      1.334040000000000     -0.327414000000000
C       3.699451000000000      0.847897000000000      0.952429000000000
C       3.839021000000000      0.348302000000000     -1.455408000000000
C       3.861156000000000     -0.626113000000000      1.327181000000000
C       3.456826000000000     -1.082493000000000     -1.064489000000000
C       3.393787000000000     -1.559097000000000      0.216106000000000
C       2.660354000000000     -1.658241000000000     -2.111061000000000
C       2.572145000000000     -2.733374000000000      0.505780000000000
C       1.859842000000000     -2.800993000000000     -1.899822000000000
C       1.828777000000000     -3.386013000000000     -0.567741000000000
C       0.739035000000000     -2.939895000000000     -2.772291000000000
C       0.687474000000000     -4.168746000000000     -0.232116000000000
C      -0.413539000000000     -3.704741000000000     -2.379278000000000
C      -0.438096000000000     -4.300955000000000     -1.134312000000000
C      -1.594913000000000     -3.040687000000000     -2.900561000000000
C      -1.659385000000000     -4.269764000000000     -0.339872000000000
C      -2.767105000000000     -3.028167000000000     -2.160358000000000
C      -2.794304000000000     -3.652374000000000     -0.838307000000000
C      -3.571712000000000     -1.854475000000000     -2.131353000000000
C      -3.602868000000000     -2.851127000000000      0.024076000000000
C      -4.455635000000000      0.589252000000000     -1.012483000000000
C      -4.449679000000000     -0.387124000000000      1.133652000000000
C      -4.195065000000000     -1.816397000000000     -0.815682000000000
C      -4.621205000000000     -0.641507000000000     -0.276292000000000
C       2.364348000000000      3.304908000000000      0.522405000000000
C       2.418399000000000      2.732740000000000      1.848573000000000
Cl      5.612851000000000      0.414932000000000     -2.019409000000000
Cl      5.633498000000000     -1.001819000000000      1.763172000000000
