68

C       0.183123195752706     -0.028478116710952     -3.976942314259428
C       0.312640796691557      1.537129211952871     -3.607539852885073
C      -0.963257926929488      1.771565513047153     -2.824979362891904
C      -1.015996359421578     -0.460419070466211     -3.185324707093806
C      -1.808601685648975      0.650527497423857     -2.803698392614842
C      -1.332614696991841     -1.654596032244446     -2.657023378397370
C      -0.222339163863694     -2.609377773732349     -2.427418424183439
C       1.342747055889049     -0.925152319888009     -3.483147143444415
C       1.093586714887386     -1.833142705563981     -2.330664447848488
C       1.779630077352314     -0.299443580856396     -2.230215594434468
C       1.565566150289774      2.124406529083402     -2.875308354326273
C       2.563055059857428      1.014250572931613     -2.393173061797680
C       1.251660103835196      2.834209796864915     -1.588914005542066
C      -1.137376657932389      2.699232275428772     -1.842427032388684
C       0.032150725852413      3.273479404170629     -1.185039601649354
C      -2.150914580528800      2.574914802003717     -0.835230593098549
C      -2.816933496235785      0.521028539593451     -1.853267920781432
C      -3.012400044746316      1.502539860382609     -0.842709606648724
C      -2.352951961378879     -1.819510802889336     -1.671803870293884
C      -3.111701799857995     -0.742555923421765     -1.275693052473645
C      -0.586396657765300     -3.157738994791663     -1.089956784595860
C      -1.894755034460263     -2.744876860179404     -0.707007538791583
C       0.353043663227381     -3.403033772666544     -0.155994780596394
C       2.109724237780123     -2.602819888717124     -1.600253178037481
C       2.219023068285900     -1.195512067559768     -1.236831065241372
C       1.836254670416749     -3.399018875298176     -0.321066855300004
C       3.199908550158241     -0.874587685572604     -0.247400944660675
C       2.979718574253851      1.452291676990657     -1.009844730107839
C       2.221731974422282      2.560552839116581     -0.589420004285941
C       3.393023755188868      0.549467524644848     -0.055430613856477
C       1.916613123735317      2.757976071231440      0.756135673023337
C      -0.297726238712044      3.466024977033064      0.196636137962445
C      -1.652490435227506      3.059166129754282      0.421868915390876
C       0.645981959354313      3.238228156224027      1.177045358350190
C      -2.018961536338475      2.440177489622027      1.609774594907441
C      -3.406453754181842      0.860829964571134      0.382933088238511
C      -3.465291281981734     -0.546809330990100      0.109625745354966
C      -2.914066547930938      1.311189362241790      1.595324045892213
C      -2.236179404052896     -2.577765235286546      0.622249800302354
C      -3.026834076660964     -1.455264438129491      1.052905199149877
C       0.006931092845204     -3.251917878593965      1.236229191514288
C      -1.242589471929036     -2.820747283163177      1.615243840950569
C       2.229019656772592     -2.702720212541901      0.969964494846718
C       3.051628299154950     -1.598642326911042      1.005526134917871
C       1.167923130477446     -2.770731321367789      1.918436505787063
C       3.078458743907309      0.722214489194231      1.328346547855470
C       2.364698285240709      1.829676163696872      1.738556199664150
C       2.842816384517731     -0.546875702141376      1.948375451048244
C       0.279980955996737      2.588222563045581      2.410214934379507
C      -1.025615378799354      2.194354180002710      2.628571500530736
C       1.366144133295845      1.725400433610465      2.774072423448450
C      -2.466005412205742      0.364939101145173      2.584740510370074
C      -2.522770702121118     -0.993253407978786      2.318988458180355
C      -1.418840151218076     -1.850936156719294      2.659744676882981
C      -1.293355841555738      0.910607354757690      3.222908814715838
C       1.004411804718576     -1.786618442299681      2.897873323444499
C       1.874211266977095     -0.656769437964221      2.924301574734312
C       1.110763956170629      0.492237650397374      3.341807162137593
C      -0.297740800288084     -1.334055884050214      3.276145524077299
C      -0.241311677207355      0.080196901807355      3.568222443140011
Cl     -0.150786308305410     -0.331184897157579     -5.699843011101559
Cl      0.124930167223299     -3.782192924262716     -3.722878740047732
Cl      0.005057847405372      2.484049892556304     -5.114263439877021
Cl      2.460059133522221      3.315984020952105     -3.892141770890298
Cl      2.566029233876972     -5.037966830160962     -0.365105019032148
Cl      3.159410183847602     -3.345788682553891     -2.731426474237705
Cl      3.965015284447898      0.765566987182625     -3.465255082919085
Cl      2.398001381593144     -1.574109790536481     -4.653699878933453
