72

C       3.576347000000000      0.884440000000000     -0.352128000000000
C       3.578844000000000      0.008098000000000      0.959875000000000
C       3.375343000000000     -1.520385000000000      0.477777000000000
C       2.966521000000000     -0.050335000000000     -1.332149000000000
C       2.959609000000000     -1.376537000000000     -0.951290000000000
C       1.965578000000000      0.510677000000000     -2.116564000000000
C       2.578840000000000      2.152126000000000     -0.422498000000000
C       1.639754000000000      1.803853000000000     -1.605177000000000
C       1.668839000000000      2.362377000000000      0.785809000000000
C       2.366522000000000      0.227986000000000      1.802147000000000
C       1.677446000000000      1.457948000000000      1.912436000000000
C       2.124096000000000     -1.987184000000000      1.223731000000000
C       1.738730000000000     -0.967940000000000      2.154884000000000
C       1.180947000000000     -2.848887000000000      0.726099000000000
C       2.024463000000000     -2.214943000000000     -1.518957000000000
C       1.359711000000000     -3.338799000000000     -0.725017000000000
C       1.011813000000000     -0.316117000000000     -2.753009000000000
C       1.141542000000000     -1.719775000000000     -2.499677000000000
C      -0.280786000000000      0.247321000000000     -3.068967000000000
C       0.388263000000000      2.323228000000000     -1.782050000000000
C      -0.597418000000000      1.595319000000000     -2.583908000000000
C       0.548538000000000      3.138959000000000      0.578840000000000
C      -0.034462000000000      3.429153000000000     -0.817998000000000
C      -0.512996000000000      3.196819000000000      1.533703000000000
C       0.583770000000000      1.458786000000000      2.806525000000000
C      -0.483289000000000      2.404885000000000      2.678398000000000
C       0.485433000000000     -1.000274000000000      2.823784000000000
C       0.026687000000000      0.235409000000000      3.320378000000000
C      -0.127924000000000     -2.953179000000000      1.385721000000000
C      -0.447142000000000     -2.060302000000000      2.503703000000000
C      -1.200847000000000     -3.547846000000000      0.694293000000000
C       0.030419000000000     -3.463358000000000     -1.439130000000000
C      -0.014659000000000     -2.572775000000000     -2.559239000000000
C      -1.128813000000000     -3.730661000000000     -0.768651000000000
C      -1.339229000000000     -0.654928000000000     -3.344876000000000
C      -1.209526000000000     -2.075680000000000     -3.039832000000000
C      -2.696167000000000     -0.296653000000000     -3.113688000000000
C      -1.958089000000000      1.947386000000000     -2.464802000000000
C      -2.996761000000000      0.993253000000000     -2.680328000000000
C      -1.521124000000000      3.430699000000000     -0.539171000000000
C      -1.773555000000000      3.433333000000000      0.866813000000000
C      -2.414439000000000      2.845512000000000     -1.391054000000000
C      -2.959776000000000      2.903968000000000      1.381766000000000
C      -1.700156000000000      1.808695000000000      3.181456000000000
C      -1.368263000000000      0.455850000000000      3.584141000000000
C      -2.919469000000000      2.064462000000000      2.566236000000000
C      -1.802015000000000     -1.855182000000000      2.864123000000000
C      -2.263997000000000     -0.576343000000000      3.378704000000000
C      -2.560179000000000     -3.223662000000000      1.002776000000000
C      -2.866129000000000     -2.413539000000000      2.088907000000000
C      -2.401974000000000     -3.337643000000000     -1.326366000000000
C      -2.448568000000000     -2.531077000000000     -2.472472000000000
C      -3.393444000000000     -1.441468000000000     -2.546490000000000
C      -3.309849000000000     -3.077242000000000     -0.238217000000000
C      -4.319186000000000     -1.243552000000000     -1.527701000000000
C      -4.278604000000000     -2.083396000000000     -0.346821000000000
C      -4.042055000000000      1.198672000000000     -1.690196000000000
C      -3.673304000000000      2.342748000000000     -0.890829000000000
C      -3.942097000000000      2.358197000000000      0.479561000000000
C      -4.666426000000000      0.101700000000000     -1.105195000000000
C      -3.879958000000000      0.994722000000000      2.388101000000000
C      -3.569022000000000     -0.300219000000000      2.812137000000000
C      -3.942013000000000     -1.440491000000000      2.007237000000000
C      -4.613194000000000     -1.255577000000000      0.801581000000000
C      -4.533001000000000      1.189615000000000      1.106423000000000
C      -4.886593000000000      0.086138000000000      0.331581000000000
Cl      5.262719000000000      1.232741000000000     -0.922970000000000
Cl      4.995817000000000      0.297229000000000      2.046260000000000
Cl      4.773785000000000     -2.629004000000000      0.736166000000000
Cl      2.286571000000000     -4.933754000000000     -0.792183000000000
Cl      3.472255000000000      3.717220000000000     -0.698959000000000
Cl      0.413009000000000      5.098021000000000     -1.496031000000000
