94

C       0.566903000000000      4.324614000000000      0.107805000000000
C      -3.432386000000000      2.563656000000000     -1.503813000000000
C       1.146496000000000     -3.471613000000000      1.847711000000000
C      -3.102150000000000     -3.010096000000000     -0.048631000000000
C       1.089321000000000      3.748411000000000     -1.106510000000000
C      -2.992565000000000      3.412374000000000     -0.336501000000000
C       1.493569000000000     -3.774471000000000      0.491470000000000
C      -2.499133000000000     -3.068633000000000      1.337274000000000
C       0.157729000000000      3.341037000000000     -2.142014000000000
C      -3.268960000000000      3.072794000000000      0.957302000000000
C      -2.814525000000000     -2.160965000000000      2.306972000000000
C       0.496571000000000     -3.883107000000000     -0.524029000000000
C      -1.246337000000000      3.495208000000000     -1.892344000000000
C      -0.847262000000000     -3.871261000000000     -0.081746000000000
C      -1.745228000000000      4.042455000000000     -0.655152000000000
C      -1.197695000000000     -3.641874000000000      1.285345000000000
C      -0.848959000000000      4.429664000000000      0.326673000000000
C      -0.204741000000000     -3.332856000000000      2.256714000000000
C      -1.138472000000000      4.074543000000000      1.693551000000000
C      -0.525397000000000     -2.343219000000000      3.258645000000000
C       0.099222000000000      3.708184000000000      2.320106000000000
C       0.529430000000000     -1.527275000000000      3.747771000000000
C       1.151748000000000      3.999285000000000      1.369306000000000
C       1.878684000000000     -1.721849000000000      3.339542000000000
C       2.355004000000000      3.298352000000000      1.441825000000000
C       2.188546000000000     -2.677688000000000      2.416819000000000
C       3.205515000000000      3.079246000000000      0.211273000000000
C       3.344297000000000     -2.539032000000000      1.434788000000000
C       2.391724000000000      3.139111000000000     -1.069113000000000
C       2.779408000000000     -3.238090000000000      0.216780000000000
C       2.777827000000000      2.294663000000000     -2.085733000000000
C       3.086689000000000     -2.855806000000000     -1.052397000000000
C       1.894668000000000      1.946965000000000     -3.138822000000000
C       2.133082000000000     -3.001602000000000     -2.103338000000000
C       0.538748000000000      2.371550000000000     -3.137382000000000
C       0.794602000000000     -3.439475000000000     -1.862779000000000
C      -0.458716000000000      1.486040000000000     -3.735675000000000
C      -0.279467000000000     -2.934529000000000     -2.707733000000000
C      -1.830567000000000      1.567940000000000     -3.278304000000000
C      -3.457246000000000      0.153025000000000     -2.028355000000000
C      -3.433159000000000     -1.207450000000000     -1.693530000000000
C      -1.630096000000000     -2.894853000000000     -2.173912000000000
C      -2.195774000000000      2.610197000000000     -2.410817000000000
C      -3.724137000000000      1.135473000000000     -1.076021000000000
C      -3.586484000000000     -1.608094000000000     -0.378214000000000
C      -1.891781000000000     -3.389250000000000     -0.919357000000000
C      -3.949445000000000      0.742416000000000      0.261267000000000
C      -3.860461000000000     -0.629662000000000      0.616985000000000
C      -4.051936000000000      1.827026000000000      1.343097000000000
C      -3.817567000000000     -1.039876000000000      2.088853000000000
C      -3.307202000000000      1.380102000000000      2.588888000000000
C      -3.203739000000000      0.065450000000000      2.922419000000000
C      -2.303219000000000      3.374333000000000      1.980194000000000
C      -1.824822000000000     -1.769748000000000      3.256151000000000
C      -2.264359000000000      2.295322000000000      2.919485000000000
C      -2.040360000000000     -0.393607000000000      3.599621000000000
C       0.185406000000000      2.595019000000000      3.194185000000000
C       0.323608000000000     -0.130441000000000      4.017368000000000
C       1.465206000000000      1.893312000000000      3.266635000000000
C       1.507755000000000      0.576186000000000      3.728479000000000
C       2.509441000000000      2.277393000000000      2.360446000000000
C       2.635779000000000     -0.415450000000000      3.417789000000000
C       3.357306000000000      1.249232000000000      1.746312000000000
C       3.312795000000000     -0.096721000000000      2.097884000000000
C       3.709267000000000      1.654946000000000      0.452583000000000
C       3.615809000000000     -1.065361000000000      1.114387000000000
C       3.964502000000000      0.722175000000000     -0.538315000000000
C       3.936918000000000     -0.661398000000000     -0.206991000000000
C       3.893599000000000      1.237373000000000     -1.968512000000000
C       4.033265000000000     -1.699372000000000     -1.330665000000000
C       3.401911000000000      0.174028000000000     -2.918679000000000
C       3.465421000000000     -1.157883000000000     -2.631149000000000
C       2.299825000000000      0.683977000000000     -3.685104000000000
C       2.425133000000000     -2.031094000000000     -3.107184000000000
C       1.348947000000000     -0.159591000000000     -4.236587000000000
C       1.400993000000000     -1.566389000000000     -3.927466000000000
C      -0.027825000000000      0.242664000000000     -4.271951000000000
C       0.060420000000000     -2.048484000000000     -3.771341000000000
C      -2.602485000000000      0.372035000000000     -3.197084000000000
C      -2.692585000000000     -1.992556000000000     -2.779050000000000
C      -0.818521000000000     -0.951131000000000     -4.117277000000000
C      -2.095267000000000     -0.862641000000000     -3.589608000000000
C      -1.037868000000000      1.868009000000000      3.512953000000000
C      -0.957024000000000      0.479887000000000      3.896242000000000
Cl      4.870621000000000     -3.342673000000000      2.075820000000000
Cl      5.782545000000000     -2.254221000000000     -1.525273000000000
Cl     -3.863178000000000     -2.995844000000000     -3.807968000000000
Cl     -4.464535000000000     -4.235339000000000     -0.238892000000000
Cl     -5.499831000000000     -1.520633000000000      2.676677000000000
Cl     -5.824712000000000      2.205828000000000      1.673371000000000
Cl     -4.917606000000000      3.276598000000000     -2.358698000000000
Cl      5.529110000000000      1.903784000000000     -2.501486000000000
Cl      4.590388000000000      4.308860000000000      0.162028000000000
Cl      3.886432000000000     -0.431482000000000      4.786523000000000
