94

C      -1.026113000000000      4.327960000000000     -0.183081000000000
C       2.999652000000000      2.625728000000000      1.747346000000000
C      -0.704871000000000     -3.682040000000000     -2.165205000000000
C       3.284182000000000     -2.920701000000000      0.166197000000000
C      -1.539387000000000      3.420315000000000      0.941989000000000
C       2.604910000000000      3.462512000000000      0.555562000000000
C      -1.160504000000000     -4.041812000000000     -0.861554000000000
C       2.834712000000000     -2.992815000000000     -1.273381000000000
C      -0.684636000000000      3.071988000000000      2.035469000000000
C       3.031104000000000      3.169945000000000     -0.709609000000000
C       3.164945000000000     -2.041513000000000     -2.185041000000000
C      -0.266211000000000     -4.094662000000000      0.247285000000000
C       0.725725000000000      3.369956000000000      1.946946000000000
C       1.108072000000000     -3.954979000000000     -0.056912000000000
C       1.293900000000000      4.000500000000000      0.763573000000000
C       1.575295000000000     -3.669906000000000     -1.371616000000000
C       0.482963000000000      4.348396000000000     -0.285591000000000
C       0.669218000000000     -3.424735000000000     -2.437714000000000
C       0.896399000000000      3.991275000000000     -1.598321000000000
C       1.009236000000000     -2.392592000000000     -3.396358000000000
C      -0.241678000000000      3.539694000000000     -2.348343000000000
C      -0.044588000000000     -1.650542000000000     -3.994113000000000
C      -1.406648000000000      3.762821000000000     -1.544210000000000
C      -1.427591000000000     -1.929795000000000     -3.666612000000000
C      -2.511168000000000      2.992673000000000     -1.717752000000000
C      -1.745013000000000     -2.942882000000000     -2.807992000000000
C      -3.464168000000000      2.665789000000000     -0.593050000000000
C      -3.006650000000000     -2.921970000000000     -1.953132000000000
C      -2.762529000000000      2.734939000000000      0.754289000000000
C      -2.515681000000000     -3.617011000000000     -0.704350000000000
C      -3.187079000000000      1.823875000000000      1.714472000000000
C      -2.978163000000000     -3.299441000000000      0.527077000000000
C      -2.384735000000000      1.516141000000000      2.824395000000000
C      -2.118885000000000     -3.398454000000000      1.672466000000000
C      -1.076179000000000      2.048927000000000      2.969706000000000
C      -0.734571000000000     -3.716077000000000      1.558125000000000
C      -0.074448000000000      1.236994000000000      3.652467000000000
C       0.204256000000000     -3.146810000000000      2.518474000000000
C       1.316906000000000      1.443176000000000      3.335162000000000
C       3.176360000000000      0.209998000000000      2.231109000000000
C       3.295343000000000     -1.138428000000000      1.871356000000000
C       1.601465000000000     -2.977259000000000      2.124082000000000
C       1.677525000000000      2.551700000000000      2.523349000000000
C       3.451469000000000      1.235177000000000      1.327914000000000
C       3.615091000000000     -1.492289000000000      0.570148000000000
C       2.025527000000000     -3.413241000000000      0.898260000000000
C       3.841988000000000      0.893908000000000      0.014688000000000
C       3.905151000000000     -0.470810000000000     -0.370538000000000
C       3.953856000000000      2.005828000000000     -1.037595000000000
C       4.039974000000000     -0.846363000000000     -1.849031000000000
C       3.377506000000000      1.526866000000000     -2.358770000000000
C       3.419800000000000      0.223186000000000     -2.723392000000000
C       2.142890000000000      3.404066000000000     -1.806172000000000
C       2.244719000000000     -1.710516000000000     -3.235751000000000
C       2.278685000000000      2.354508000000000     -2.770604000000000
C       2.373449000000000     -0.319112000000000     -3.530696000000000
C      -0.144594000000000      2.461221000000000     -3.263184000000000
C       0.061617000000000     -0.251620000000000     -4.211490000000000
C      -1.342869000000000      1.673156000000000     -3.466393000000000
C      -1.242803000000000      0.341492000000000     -3.965992000000000
C      -2.483473000000000      1.945077000000000     -2.676138000000000
C      -2.154258000000000     -0.678835000000000     -3.615729000000000
C      -3.321381000000000      0.874976000000000     -2.195272000000000
C      -3.127959000000000     -0.466141000000000     -2.583156000000000
C      -3.819635000000000      1.209603000000000     -0.919200000000000
C      -3.463295000000000     -1.493123000000000     -1.638147000000000
C      -4.092124000000000      0.228092000000000      0.013447000000000
C      -3.926046000000000     -1.149765000000000     -0.355886000000000
C      -4.198076000000000      0.690547000000000      1.456688000000000
C      -4.037044000000000     -2.227728000000000      0.734743000000000
C      -3.718316000000000     -0.364619000000000      2.423075000000000
C      -3.643833000000000     -1.687014000000000      2.098317000000000
C      -2.741917000000000      0.202884000000000      3.308208000000000
C      -2.591187000000000     -2.492421000000000      2.660951000000000
C      -1.783804000000000     -0.571914000000000      3.927824000000000
C      -1.691938000000000     -1.971583000000000      3.592709000000000
C      -0.451495000000000     -0.055713000000000      4.115668000000000
C      -0.311053000000000     -2.333400000000000      3.555376000000000
C       2.188576000000000      0.328182000000000      3.309899000000000
C       2.519012000000000     -2.012777000000000      2.857777000000000
C       0.443603000000000     -1.165030000000000      4.016487000000000
C       1.750736000000000     -0.960313000000000      3.626224000000000
C       1.168601000000000      1.848755000000000     -3.488941000000000
C       1.247592000000000      0.465949000000000     -3.925461000000000
Cl     -4.366849000000000     -3.853049000000000     -2.793152000000000
Cl     -5.747638000000000     -2.919578000000000      0.746936000000000
Cl      3.654832000000000     -2.949948000000000      3.982821000000000
Cl      4.715617000000000     -4.036889000000000      0.493368000000000
Cl      5.807608000000000     -1.165256000000000     -2.266755000000000
Cl      5.709580000000000      2.548957000000000     -1.177163000000000
Cl      4.328882000000000      3.432249000000000      2.756866000000000
Cl     -5.925578000000000      1.211108000000000      1.858823000000000
Cl     -4.944144000000000      3.761362000000000     -0.624156000000000
Cl     -1.698219000000000      6.039270000000000      0.076121000000000
