94

C       0.190678000000000     -3.026527000000000     -3.006372000000000
C      -3.702981000000000     -2.501865000000000     -0.482211000000000
C       1.527522000000000      3.764215000000000      1.044110000000000
C      -2.785023000000000      2.503823000000000      2.245285000000000
C       0.717495000000000     -3.478059000000000     -1.763891000000000
C      -3.275215000000000     -2.347307000000000     -1.920684000000000
C       1.851252000000000      3.010572000000000      2.240342000000000
C      -2.143562000000000      3.468136000000000      1.268323000000000
C      -0.216125000000000     -3.800350000000000     -0.687492000000000
C      -3.473765000000000     -1.198537000000000     -2.627742000000000
C      -2.503661000000000      3.491077000000000     -0.061522000000000
C       0.843806000000000      2.488852000000000      3.092134000000000
C      -1.605154000000000     -3.632967000000000     -0.923993000000000
C      -0.494709000000000      2.899602000000000      2.804092000000000
C      -2.105653000000000     -3.144264000000000     -2.164896000000000
C      -0.814549000000000      3.724496000000000      1.648748000000000
C      -1.211860000000000     -2.831085000000000     -3.187498000000000
C       0.184053000000000      4.068714000000000      0.697493000000000
C      -1.418339000000000     -1.610294000000000     -3.925406000000000
C      -0.184054000000000      4.068715000000000     -0.697496000000000
C      -0.128858000000000     -1.021752000000000     -4.183718000000000
C       0.814549000000000      3.724496000000000     -1.648751000000000
C       0.858063000000000     -1.965284000000000     -3.742834000000000
C       2.143563000000000      3.468136000000000     -1.268325000000000
C       2.109541000000000     -1.517330000000000     -3.357064000000000
C       2.503660000000000      3.491078000000000      0.061520000000000
C       2.934066000000000     -2.273819000000000     -2.339608000000000
C       3.604644000000000      2.607097000000000      0.632482000000000
C       2.076501000000000     -3.124489000000000     -1.418963000000000
C       3.066486000000000      2.323982000000000      2.019275000000000
C       2.496161000000000     -3.246164000000000     -0.120537000000000
C       3.298748000000000      1.144255000000000      2.668337000000000
C       1.605154000000000     -3.632966000000000      0.923997000000000
C       2.338484000000000      0.619400000000000      3.571798000000000
C       0.216125000000000     -3.800349000000000      0.687495000000000
C       1.058560000000000      1.230174000000000      3.758655000000000
C      -0.717494000000000     -3.478056000000000      1.763894000000000
C      -0.085633000000000      0.381526000000000      4.071269000000000
C      -2.076500000000000     -3.124487000000000      1.418966000000000
C      -3.562229000000000     -1.121027000000000      1.555208000000000
C      -3.294100000000000      0.090284000000000      2.204739000000000
C      -1.418394000000000      0.824241000000000      3.692110000000000
C      -2.496160000000000     -3.246163000000000      0.120541000000000
C      -3.863286000000000     -1.151940000000000      0.202897000000000
C      -3.374641000000000      1.305356000000000      1.527397000000000
C      -1.590544000000000      2.104675000000000      3.120238000000000
C      -3.968665000000000      0.072338000000000     -0.509920000000000
C      -3.725127000000000      1.300973000000000      0.159043000000000
C      -4.126344000000000      0.037538000000000     -2.034142000000000
C      -3.604644000000000      2.607097000000000     -0.632483000000000
C      -3.298749000000000      1.144252000000000     -2.668338000000000
C      -3.066488000000000      2.323981000000000     -2.019277000000000
C      -2.501516000000000     -0.806058000000000     -3.614715000000000
C      -1.527523000000000      3.764214000000000     -1.044113000000000
C      -2.338485000000000      0.619397000000000     -3.571799000000000
C      -1.851253000000000      3.010571000000000     -2.240344000000000
C       0.085633000000000      0.381523000000000     -4.071271000000000
C       0.494709000000000      2.899602000000000     -2.804096000000000
C       1.418395000000000      0.824238000000000     -3.692112000000000
C       1.590544000000000      2.104674000000000     -3.120241000000000
C       2.389726000000000     -0.153896000000000     -3.335304000000000
C       2.785024000000000      2.503822000000000     -2.245287000000000
C       3.294101000000000      0.090282000000000     -2.204739000000000
C       3.374641000000000      1.305356000000000     -1.527397000000000
C       3.562230000000000     -1.121029000000000     -1.555207000000000
C       3.725127000000000      1.300973000000000     -0.159043000000000
C       3.863287000000000     -1.151940000000000     -0.202895000000000
C       3.968665000000000      0.072339000000000      0.509921000000000
C       3.702981000000000     -2.501864000000000      0.482214000000000
C       4.126343000000000      0.037540000000000      2.034143000000000
C       3.275214000000000     -2.347305000000000      1.920687000000000
C       3.473764000000000     -1.198534000000000      2.627744000000000
C       2.105653000000000     -3.144262000000000      2.164899000000000
C       2.501514000000000     -0.806054000000000      3.614715000000000
C       1.211859000000000     -2.831080000000000      3.187499000000000
C       1.418338000000000     -1.610290000000000      3.925405000000000
C      -0.190678000000000     -3.026521000000000      3.006372000000000
C       0.128857000000000     -1.021748000000000      4.183716000000000
C      -2.934065000000000     -2.273816000000000      2.339610000000000
C      -2.389724000000000     -0.153893000000000      3.335302000000000
C      -0.858062000000000     -1.965279000000000      3.742833000000000
C      -2.109539000000000     -1.517326000000000      3.357063000000000
C      -1.058561000000000      1.230171000000000     -3.758657000000000
C      -0.843807000000000      2.488851000000000     -3.092137000000000
Cl     -5.254543000000000     -3.488151000000000     -0.351175000000000
Cl     -5.912898000000000      0.153616000000000     -2.483181000000000
Cl     -5.222941000000000      3.482612000000000     -0.658548000000000
Cl     -4.206848000000000     -3.312199000000000      3.194213000000000
Cl      5.222940000000000      3.482613000000000      0.658547000000000
Cl      5.912898000000000      0.153619000000000      2.483182000000000
Cl     -4.093208000000000      3.337654000000000      3.256452000000000
Cl      5.254544000000000     -3.488150000000000      0.351179000000000
Cl      4.206849000000000     -3.312203000000000     -3.194209000000000
Cl      4.093209000000000      3.337652000000000     -3.256453000000000
