96

C      -0.847465000000000     -2.855163000000000     -3.014397000000000
C       3.501558000000000     -1.276719000000000     -2.505021000000000
C      -1.268847000000000      1.347426000000000      3.757977000000000
C       3.230795000000000      1.597188000000000      2.499782000000000
C      -1.089110000000000     -1.552609000000000     -3.500494000000000
C       2.768084000000000     -2.585180000000000     -2.343641000000000
C      -1.330996000000000      2.568444000000000      3.026786000000000
C       2.382978000000000      0.772529000000000      3.439729000000000
C       0.059660000000000     -0.717192000000000     -3.828473000000000
C       2.806299000000000     -3.308553000000000     -1.192745000000000
C       2.451289000000000     -0.582658000000000      3.474976000000000
C      -0.153521000000000      3.179887000000000      2.503871000000000
C       1.361357000000000     -1.253536000000000     -3.648667000000000
C       1.080425000000000      2.621280000000000      2.914707000000000
C       1.570206000000000     -2.564138000000000     -3.143505000000000
C       1.145451000000000      1.441262000000000      3.706337000000000
C       0.463333000000000     -3.347260000000000     -2.811538000000000
C      -0.031194000000000      0.722135000000000      4.057441000000000
C       0.497967000000000     -4.113565000000000     -1.578324000000000
C       0.031194000000000     -0.722142000000000      4.057440000000000
C      -0.793567000000000     -4.092506000000000     -0.989742000000000
C      -1.145451000000000     -1.441268000000000      3.706334000000000
C      -1.682437000000000     -3.409675000000000     -1.938382000000000
C      -2.382978000000000     -0.772535000000000      3.439727000000000
C      -2.834253000000000     -2.838035000000000     -1.560606000000000
C      -2.451288000000000      0.582652000000000      3.474977000000000
C      -3.385029000000000     -1.648920000000000     -2.295979000000000
C      -3.399473000000000      1.379837000000000      2.596847000000000
C      -2.349356000000000     -0.927856000000000     -3.150090000000000
C      -2.572346000000000      2.617582000000000      2.321313000000000
C      -2.469570000000000      0.428119000000000     -3.266698000000000
C      -2.650753000000000      3.298783000000000      1.153362000000000
C      -1.361358000000000      1.253542000000000     -3.648665000000000
C      -1.497345000000000      3.972108000000000      0.627168000000000
C      -0.059660000000000      0.717198000000000     -3.828472000000000
C      -0.213688000000000      3.870798000000000      1.239963000000000
C       1.089110000000000      1.552615000000000     -3.500493000000000
C       0.973854000000000      3.923608000000000      0.398638000000000
C       2.349357000000000      0.927861000000000     -3.150089000000000
C       3.788352000000000      0.763148000000000     -1.127556000000000
C       3.726976000000000      1.457987000000000      0.076584000000000
C       2.205363000000000      3.286826000000000      0.849577000000000
C       2.469570000000000     -0.428114000000000     -3.266700000000000
C       3.791665000000000     -0.630102000000000     -1.157706000000000
C       3.654722000000000      0.778682000000000      1.290462000000000
C       2.244290000000000      2.696044000000000      2.083502000000000
C       3.763712000000000     -1.340683000000000      0.060161000000000
C       3.688029000000000     -0.630680000000000      1.289108000000000
C       3.583059000000000     -2.866052000000000      0.034941000000000
C       3.399473000000000     -1.379842000000000      2.596844000000000
C       2.650752000000000     -3.298785000000000      1.153357000000000
C       2.572346000000000     -2.617586000000000      2.321309000000000
C       1.641701000000000     -4.058972000000000     -0.783635000000000
C       1.268847000000000     -1.347433000000000      3.757975000000000
C       1.497344000000000     -3.972109000000000      0.627162000000000
C       1.330996000000000     -2.568449000000000      3.026782000000000
C      -0.973854000000000     -3.923608000000000      0.398632000000000
C      -1.080425000000000     -2.621285000000000      2.914703000000000
C      -2.205363000000000     -3.286826000000000      0.849572000000000
C      -2.244289000000000     -2.696047000000000      2.083497000000000
C      -3.303137000000000     -2.903890000000000     -0.134411000000000
C      -3.230795000000000     -1.597192000000000      2.499779000000000
C      -3.726975000000000     -1.457987000000000      0.076582000000000
C      -3.654721000000000     -0.778684000000000      1.290460000000000
C      -3.788351000000000     -0.763147000000000     -1.127557000000000
C      -3.688029000000000      0.630678000000000      1.289109000000000
C      -3.791665000000000      0.630104000000000     -1.157705000000000
C      -3.763712000000000      1.340683000000000      0.060164000000000
C      -3.501558000000000      1.276723000000000     -2.505019000000000
C      -3.583060000000000      2.866051000000000      0.034946000000000
C      -2.768085000000000      2.585184000000000     -2.343637000000000
C      -2.806300000000000      3.308556000000000     -1.192739000000000
C      -1.570207000000000      2.564143000000000     -3.143502000000000
C      -1.641702000000000      4.058974000000000     -0.783628000000000
C      -0.463334000000000      3.347267000000000     -2.811534000000000
C      -0.497968000000000      4.113569000000000     -1.578318000000000
C       0.847465000000000      2.855170000000000     -3.014395000000000
C       0.793567000000000      4.092510000000000     -0.989736000000000
C       3.385030000000000      1.648924000000000     -2.295976000000000
C       3.303138000000000      2.903891000000000     -0.134406000000000
C       1.682438000000000      3.409680000000000     -1.938377000000000
C       2.834255000000000      2.838039000000000     -1.560602000000000
C       0.213688000000000     -3.870800000000000      1.239956000000000
C       0.153521000000000     -3.179892000000000      2.503865000000000
Cl      5.057223000000000     -1.503757000000000     -3.465891000000000
Cl      5.233728000000000     -3.681526000000000      0.134418000000000
Cl      4.979072000000000     -1.758322000000000      3.462770000000000
Cl      4.849349000000000      2.137919000000000     -3.334084000000000
Cl     -4.979072000000000      1.758316000000000      3.462773000000000
Cl     -5.233729000000000      3.681525000000000      0.134425000000000
Cl      4.702373000000000      2.299486000000000      3.355811000000000
Cl     -5.057223000000000      1.503762000000000     -3.465889000000000
Cl     -4.849348000000000     -2.137914000000000     -3.334088000000000
Cl     -4.702373000000000     -2.299492000000000      3.355807000000000
Cl     -4.751343000000000     -4.064285000000000      0.047574000000000
Cl      4.751344000000000      4.064285000000000      0.047582000000000
