96

C       1.953618000000000     -4.335205000000000      0.307053000000000
C      -2.181376000000000     -3.125657000000000      2.107652000000000
C       0.466300000000000      2.862729000000000     -3.058622000000000
C      -3.296359000000000      1.934007000000000     -0.458917000000000
C       2.447490000000000     -3.437027000000000      1.283154000000000
C      -1.652776000000000     -4.077854000000000      1.062949000000000
C       0.903307000000000      3.782598000000000     -1.915379000000000
C      -2.914063000000000      1.831409000000000     -1.910918000000000
C       1.538413000000000     -3.000253000000000      2.340080000000000
C      -2.119367000000000     -4.094894000000000     -0.215468000000000
C      -3.044571000000000      0.683868000000000     -2.584649000000000
C       0.018791000000000      3.579268000000000     -0.695455000000000
C       0.207176000000000     -3.487926000000000      2.338695000000000
C      -1.299673000000000      3.196113000000000     -0.929431000000000
C      -0.268362000000000     -4.365362000000000      1.328096000000000
C      -1.884891000000000      2.869463000000000     -2.292031000000000
C       0.599259000000000     -4.763954000000000      0.309693000000000
C      -0.803306000000000      2.359221000000000     -3.226548000000000
C       0.104935000000000     -4.767676000000000     -1.050765000000000
C      -0.985095000000000      1.105095000000000     -3.938878000000000
C       1.147682000000000     -4.312291000000000     -1.916026000000000
C       0.154900000000000      0.422803000000000     -4.438897000000000
C       2.338300000000000     -4.173547000000000     -1.099851000000000
C       1.464342000000000      0.944586000000000     -4.201767000000000
C       3.319679000000000     -3.302133000000000     -1.460669000000000
C       1.608755000000000      2.121805000000000     -3.505267000000000
C       4.221354000000000     -2.648657000000000     -0.442435000000000
C       2.690733000000000      2.292483000000000     -2.560456000000000
C       3.575270000000000     -2.590291000000000      0.933599000000000
C       2.298167000000000      3.266277000000000     -1.627156000000000
C       3.845281000000000     -1.490837000000000      1.696131000000000
C       2.823775000000000      3.241981000000000     -0.359307000000000
C       2.995161000000000     -1.099450000000000      2.782722000000000
C       2.036041000000000      3.730959000000000      0.845623000000000
C       1.774819000000000     -1.766406000000000      3.044897000000000
C       0.535460000000000      3.490368000000000      0.616832000000000
C       0.658955000000000     -0.993598000000000      3.578042000000000
C      -0.278864000000000      2.982506000000000      1.658369000000000
C      -0.694596000000000     -1.471006000000000      3.388020000000000
C      -2.718204000000000     -0.705525000000000      2.169100000000000
C      -2.989845000000000      0.514508000000000      1.558742000000000
C      -1.596764000000000      2.558737000000000      1.388805000000000
C      -0.889051000000000     -2.697427000000000      2.820566000000000
C      -2.833884000000000     -1.906788000000000      1.471097000000000
C      -3.378516000000000      0.573507000000000      0.219141000000000
C      -2.095192000000000      2.688859000000000      0.094687000000000
C      -3.261533000000000     -1.875246000000000      0.128908000000000
C      -3.527292000000000     -0.628473000000000     -0.496189000000000
C      -3.206751000000000     -3.159927000000000     -0.710405000000000
C      -3.722024000000000     -0.549606000000000     -2.009666000000000
C      -2.719618000000000     -2.847419000000000     -2.115020000000000
C      -2.960640000000000     -1.654616000000000     -2.700889000000000
C      -1.212424000000000     -4.401988000000000     -1.294976000000000
C      -2.098736000000000      0.293321000000000     -3.620957000000000
C      -1.518643000000000     -3.580535000000000     -2.421888000000000
C      -2.019265000000000     -1.118076000000000     -3.639791000000000
C       0.885823000000000     -3.440569000000000     -3.002717000000000
C       0.260679000000000     -1.005631000000000     -4.403018000000000
C       1.950782000000000     -2.529314000000000     -3.388515000000000
C       1.637873000000000     -1.353139000000000     -4.110072000000000
C       3.137844000000000     -2.469674000000000     -2.598099000000000
C       2.376617000000000     -0.148021000000000     -3.951144000000000
C       3.808739000000000     -1.228518000000000     -2.351527000000000
C       3.397098000000000     -0.025291000000000     -2.964924000000000
C       4.368853000000000     -1.243569000000000     -1.034787000000000
C       3.551879000000000      1.208264000000000     -2.217303000000000
C       4.493865000000000     -0.098852000000000     -0.292994000000000
C       4.095137000000000      1.174907000000000     -0.878795000000000
C       4.647854000000000     -0.273226000000000      1.209633000000000
C       3.756119000000000      2.245330000000000     -0.006999000000000
C       4.003103000000000      0.841293000000000      1.998379000000000
C       3.676435000000000      2.047271000000000      1.435182000000000
C       3.142213000000000      0.299991000000000      2.992121000000000
C       2.579882000000000      2.833718000000000      1.936271000000000
C       2.051406000000000      1.043822000000000      3.465941000000000
C       1.791141000000000      2.350422000000000      2.935342000000000
C       0.838334000000000      0.390508000000000      3.783582000000000
C       0.314432000000000      2.658781000000000      3.030635000000000
C      -1.878650000000000     -0.518846000000000      3.421167000000000
C      -2.387325000000000      1.673100000000000      2.341038000000000
C      -0.245883000000000      1.335923000000000      3.543312000000000
C      -1.490709000000000      0.928131000000000      3.288900000000000
C      -0.505432000000000     -3.064551000000000     -3.268547000000000
C      -0.795301000000000     -1.809454000000000     -3.942098000000000
Cl     -4.874232000000000      2.861782000000000     -0.217956000000000
Cl     -3.671653000000000      2.660164000000000      3.224574000000000
Cl     -0.028707000000000      4.039219000000000      4.199169000000000
Cl      2.324749000000000      5.514118000000000      1.205174000000000
Cl     -5.517718000000000     -0.567346000000000     -2.418992000000000
Cl     -4.862839000000000     -3.970765000000000     -0.700195000000000
Cl     -3.354252000000000     -3.975568000000000      3.245458000000000
Cl      5.851373000000000     -3.529704000000000     -0.364628000000000
Cl      6.442728000000000     -0.420645000000000      1.666713000000000
Cl     -2.875333000000000     -0.778434000000000      4.971080000000000
Cl      0.908026000000000      5.551136000000000     -2.428637000000000
Cl     -2.701821000000000      4.362057000000000     -3.044329000000000
