98

C      -0.894001000000000     -3.937963000000000     -2.073334000000000
C       3.432111000000000     -1.944849000000000     -2.412679000000000
C      -0.754082000000000      2.182633000000000      3.395133000000000
C       3.560813000000000      2.201477000000000      1.606156000000000
C      -1.195787000000000     -2.592022000000000     -2.723800000000000
C       2.830110000000000     -3.193697000000000     -1.817724000000000
C      -0.968022000000000      3.143943000000000      2.393013000000000
C       2.877946000000000      1.644360000000000      2.835918000000000
C      -0.162344000000000     -1.860131000000000     -3.386844000000000
C       3.050470000000000     -3.559453000000000     -0.522012000000000
C       3.033691000000000      0.351698000000000      3.230126000000000
C       0.101092000000000      3.590942000000000      1.559828000000000
C       1.207684000000000     -2.292593000000000     -3.245272000000000
C       1.398317000000000      3.206673000000000      1.957824000000000
C       1.554544000000000     -3.446123000000000     -2.426880000000000
C       1.633559000000000      2.309558000000000      3.055298000000000
C       0.571776000000000     -4.148768000000000     -1.784389000000000
C       0.554956000000000      1.693674000000000      3.720584000000000
C       0.768198000000000     -4.484736000000000     -0.411056000000000
C       0.703322000000000      0.311881000000000      4.111725000000000
C      -0.453958000000000     -4.330669000000000      0.300462000000000
C      -0.458581000000000     -0.510519000000000      4.113013000000000
C      -1.490466000000000     -4.008083000000000     -0.673047000000000
C      -1.760580000000000      0.023728000000000      3.818008000000000
C      -2.613832000000000     -3.372487000000000     -0.333924000000000
C      -1.912417000000000      1.326670000000000      3.485496000000000
C      -3.327583000000000     -2.458038000000000     -1.289919000000000
C      -2.996119000000000      1.812877000000000      2.543404000000000
C      -2.423801000000000     -1.967744000000000     -2.414634000000000
C      -2.284607000000000      2.944475000000000      1.829736000000000
C      -2.666700000000000     -0.682434000000000     -2.888157000000000
C      -2.567130000000000      3.309074000000000      0.575750000000000
C      -1.679229000000000      0.027535000000000     -3.589126000000000
C      -1.586746000000000      4.112519000000000     -0.256921000000000
C      -0.374105000000000     -0.490900000000000     -3.771353000000000
C      -0.133500000000000      3.897435000000000      0.178802000000000
C       0.742912000000000      0.448161000000000     -3.827690000000000
C       0.905646000000000      3.732400000000000     -0.747778000000000
C       2.057094000000000     -0.009380000000000     -3.467652000000000
C       3.726229000000000      0.397236000000000     -1.677985000000000
C       3.807877000000000      1.411209000000000     -0.717331000000000
C       2.206593000000000      3.291940000000000     -0.320618000000000
C       2.258669000000000     -1.398546000000000     -3.234471000000000
C       3.831980000000000     -0.950332000000000     -1.333353000000000
C       3.918199000000000      1.093482000000000      0.628790000000000
C       2.446241000000000      3.081913000000000      1.021661000000000
C       4.008561000000000     -1.289948000000000      0.025015000000000
C       4.031786000000000     -0.268029000000000      1.010467000000000
C       3.930742000000000     -2.768058000000000      0.435417000000000
C       3.933104000000000     -0.629925000000000      2.496948000000000
C       3.153657000000000     -2.899603000000000      1.734689000000000
C       3.159041000000000     -1.920470000000000      2.672282000000000
C       1.989457000000000     -4.187239000000000      0.208211000000000
C       1.939464000000000     -0.334996000000000      3.850032000000000
C       1.991212000000000     -3.718045000000000      1.550046000000000
C       1.998125000000000     -1.712444000000000      3.477034000000000
C      -0.487753000000000     -3.793841000000000      1.601684000000000
C      -0.405778000000000     -1.854676000000000      3.669012000000000
C      -1.700335000000000     -3.099668000000000      2.012095000000000
C      -1.646324000000000     -2.195026000000000      3.036001000000000
C      -2.918041000000000     -3.047615000000000      1.103418000000000
C      -2.651842000000000     -1.058990000000000      3.254613000000000
C      -3.413411000000000     -1.619264000000000      0.964639000000000
C      -3.260288000000000     -0.628475000000000      1.929846000000000
C      -3.646781000000000     -1.289246000000000     -0.366004000000000
C      -3.386584000000000      0.721548000000000      1.548119000000000
C      -3.752051000000000      0.042832000000000     -0.769138000000000
C      -3.641294000000000      1.065825000000000      0.196440000000000
C      -3.667152000000000      0.303673000000000     -2.260827000000000
C      -3.561634000000000      2.536109000000000     -0.254269000000000
C      -3.004593000000000      1.632044000000000     -2.542532000000000
C      -2.943186000000000      2.653757000000000     -1.625231000000000
C      -1.926272000000000      1.444726000000000     -3.434207000000000
C      -1.841202000000000      3.553169000000000     -1.627039000000000
C      -0.860257000000000      2.330336000000000     -3.443974000000000
C      -0.827661000000000      3.423286000000000     -2.544975000000000
C       0.477583000000000      1.836031000000000     -3.658254000000000
C       0.613197000000000      3.801183000000000     -2.251657000000000
C       2.929862000000000      0.882817000000000     -2.808254000000000
C       3.232546000000000      2.715753000000000     -1.280346000000000
C       1.370714000000000      2.701789000000000     -2.987614000000000
C       2.579193000000000      2.216167000000000     -2.548566000000000
C       0.776414000000000     -3.482422000000000      2.255061000000000
C       0.811577000000000     -2.474100000000000      3.282544000000000
Cl     -4.479741000000000      2.398875000000000      3.458723000000000
Cl     -5.262506000000000      3.267458000000000     -0.210619000000000
Cl      4.558070000000000      3.944919000000000     -1.634344000000000
Cl      5.049796000000000      3.190944000000000      2.042714000000000
Cl      5.612384000000000     -0.701264000000000      3.249552000000000
Cl      5.627658000000000     -3.470587000000000      0.544425000000000
Cl      4.894928000000000     -2.315397000000000     -3.488533000000000
Cl     -5.332879000000000      0.221055000000000     -3.037594000000000
Cl     -4.854847000000000     -3.235706000000000     -1.977498000000000
Cl     -3.966160000000000     -1.541485000000000      4.449759000000000
Cl     -1.553298000000000     -5.302302000000000     -3.147954000000000
Cl     -4.251953000000000     -4.165085000000000      1.769500000000000
Cl      1.038795000000000      5.480014000000000     -2.877582000000000
Cl     -1.972095000000000      5.935506000000000     -0.172375000000000
