100

C      -0.505463000000000      4.511285000000000     -1.524167000000000
C      -4.078680000000000      1.330867000000000     -1.470426000000000
C       2.057717000000000     -1.811018000000000      3.184649000000000
C      -2.300693000000000     -2.936349000000000      2.019538000000000
C       0.054176000000000      3.336265000000000     -2.331905000000000
C      -3.751467000000000      2.658823000000000     -0.829766000000000
C       2.488891000000000     -2.827009000000000      2.148143000000000
C      -1.589226000000000     -2.314644000000000      3.202807000000000
C      -0.840643000000000      2.371445000000000     -2.922555000000000
C      -3.838462000000000      2.858191000000000      0.521142000000000
C      -2.038434000000000     -1.127427000000000      3.767990000000000
C       1.314711000000000     -3.301826000000000      1.311094000000000
C      -2.218829000000000      2.382084000000000     -2.565092000000000
C       0.065570000000000     -3.324258000000000      1.930166000000000
C      -2.741309000000000      3.326027000000000     -1.586330000000000
C      -0.228390000000000     -2.621190000000000      3.179151000000000
C      -1.907222000000000      4.254743000000000     -1.012787000000000
C       0.748106000000000     -1.746448000000000      3.728747000000000
C      -1.955075000000000      4.416452000000000      0.395826000000000
C       0.286959000000000     -0.496315000000000      4.276580000000000
C      -0.607918000000000      4.577854000000000      0.894828000000000
C       1.157502000000000      0.622273000000000      4.212904000000000
C       0.261437000000000      4.676402000000000     -0.218639000000000
C       2.443900000000000      0.519318000000000      3.694279000000000
C       1.572002000000000      4.285243000000000     -0.096032000000000
C       2.878226000000000     -0.687145000000000      3.155860000000000
C       2.350118000000000      3.708226000000000     -1.259193000000000
C       3.896168000000000     -0.754902000000000      2.042016000000000
C       1.426489000000000      3.062743000000000     -2.277464000000000
C       3.460318000000000     -2.015221000000000      1.329501000000000
C       1.930214000000000      1.932512000000000     -2.942625000000000
C       3.558643000000000     -2.152503000000000      0.013662000000000
C       1.080665000000000      1.030097000000000     -3.570668000000000
C       2.722736000000000     -3.148725000000000     -0.771228000000000
C      -0.330600000000000      1.146038000000000     -3.477640000000000
C       1.375035000000000     -3.403161000000000     -0.094158000000000
C      -1.137544000000000     -0.049811000000000     -3.489718000000000
C       0.180791000000000     -3.489600000000000     -0.849363000000000
C      -2.414384000000000     -0.022225000000000     -2.934109000000000
C      -3.536036000000000     -1.041026000000000     -0.988008000000000
C      -3.115056000000000     -2.067169000000000     -0.151299000000000
C      -1.076529000000000     -3.482913000000000     -0.196677000000000
C      -2.958450000000000      1.205189000000000     -2.513132000000000
C      -3.945711000000000      0.189688000000000     -0.473465000000000
C      -3.070138000000000     -1.891667000000000      1.230940000000000
C      -1.117830000000000     -3.435953000000000      1.187116000000000
C      -3.953737000000000      0.376000000000000      0.924934000000000
C      -3.502762000000000     -0.666930000000000      1.779045000000000
C      -4.257849000000000      1.769653000000000      1.495794000000000
C      -3.282417000000000     -0.405813000000000      3.274221000000000
C      -3.339212000000000      2.050654000000000      2.674850000000000
C      -2.893241000000000      1.043664000000000      3.490182000000000
C      -2.897511000000000      3.727098000000000      1.148223000000000
C      -1.107030000000000     -0.216181000000000      4.275653000000000
C      -2.526354000000000      3.182385000000000      2.428682000000000
C      -1.618436000000000      1.140127000000000      4.079003000000000
C      -0.197491000000000      3.998801000000000      2.131260000000000
C       0.645307000000000      1.971227000000000      3.933894000000000
C       1.201887000000000      3.653489000000000      2.259036000000000
C       1.589958000000000      2.670940000000000      3.215546000000000
C       2.041807000000000      3.788350000000000      1.129729000000000
C       2.881479000000000      1.849319000000000      3.120868000000000
C       3.039296000000000      2.754091000000000      0.831670000000000
C       3.339861000000000      1.695007000000000      1.686449000000000
C       3.164842000000000      2.621347000000000     -0.555066000000000
C       3.779557000000000      0.472933000000000      1.134709000000000
C       3.551663000000000      1.412516000000000     -1.118004000000000
C       3.886261000000000      0.326840000000000     -0.267647000000000
C       3.263549000000000      1.243218000000000     -2.597271000000000
C       4.135003000000000     -1.059784000000000     -0.864340000000000
C       2.947071000000000     -0.196438000000000     -2.925488000000000
C       3.336720000000000     -1.253229000000000     -2.128106000000000
C       1.728321000000000     -0.274049000000000     -3.618082000000000
C       2.544822000000000     -2.415154000000000     -2.068132000000000
C       0.970640000000000     -1.429363000000000     -3.601002000000000
C       1.377497000000000     -2.506297000000000     -2.805103000000000
C      -0.512834000000000     -1.404621000000000     -3.822555000000000
C       0.202677000000000     -3.336697000000000     -2.367175000000000
C      -3.088637000000000     -1.280808000000000     -2.419824000000000
C      -2.365237000000000     -3.142702000000000     -0.922538000000000
C      -0.959192000000000     -2.485540000000000     -2.857856000000000
C      -2.120157000000000     -2.421343000000000     -2.221328000000000
C      -1.190487000000000      3.277888000000000      2.922388000000000
C      -0.757642000000000      2.230801000000000      3.810722000000000
Cl      3.417746000000000      4.978568000000000     -2.051709000000000
Cl     -0.450880000000000      6.041430000000000     -2.571665000000000
Cl      4.663800000000000      1.865128000000000     -3.612993000000000
Cl      5.943842000000000     -1.294542000000000     -1.161247000000000
Cl      5.614890000000000     -0.879601000000000      2.696601000000000
Cl     -5.761265000000000      1.348213000000000     -2.213876000000000
Cl     -6.039942000000000      1.881564000000000      1.931390000000000
Cl     -4.779519000000000     -0.894559000000000      4.219604000000000
Cl     -4.478222000000000     -1.782305000000000     -3.519671000000000
Cl     -0.925463000000000     -1.841968000000000     -5.580843000000000
Cl     -3.420320000000000     -4.297600000000000      2.540302000000000
Cl     -3.395840000000000     -4.650570000000000     -1.167312000000000
Cl      0.199280000000000     -5.002913000000000     -3.165221000000000
Cl      3.610858000000000     -4.752907000000000     -1.000213000000000
Cl      3.318172000000000     -4.288218000000000      2.953163000000000
Cl      4.224883000000000      2.623932000000000      4.126806000000000
