100

C       0.295794000000000      4.152500000000000     -1.851472000000000
C      -3.776658000000000      1.695607000000000     -2.213390000000000
C       1.109310000000000     -2.406720000000000      3.090113000000000
C      -3.226944000000000     -2.756858000000000      1.434022000000000
C       0.717222000000000      2.903971000000000     -2.625384000000000
C      -3.287965000000000      2.957813000000000     -1.542222000000000
C       1.466720000000000     -3.496275000000000      2.101486000000000
C      -2.551508000000000     -2.252545000000000      2.692031000000000
C      -0.251775000000000      2.111868000000000     -3.319266000000000
C      -3.479975000000000      3.195518000000000     -0.204490000000000
C      -2.842616000000000     -0.999655000000000      3.211348000000000
C       0.330409000000000     -3.758068000000000      1.129488000000000
C      -1.652897000000000      2.364704000000000     -3.095275000000000
C      -0.964251000000000     -3.547790000000000      1.603210000000000
C      -2.091248000000000      3.392467000000000     -2.164432000000000
C      -1.269541000000000     -2.796098000000000      2.820307000000000
C      -1.157874000000000      4.142027000000000     -1.474256000000000
C      -0.222876000000000     -2.104336000000000      3.484348000000000
C      -1.349538000000000      4.391438000000000     -0.107836000000000
C      -0.511517000000000     -0.786015000000000      3.986627000000000
C      -0.042413000000000      4.577464000000000      0.612552000000000
C       0.547034000000000      0.160159000000000      4.026513000000000
C       0.948061000000000      4.218833000000000     -0.481236000000000
C       1.842312000000000     -0.172943000000000      3.649852000000000
C       2.115225000000000      3.645613000000000     -0.224242000000000
C       2.112090000000000     -1.448287000000000      3.160218000000000
C       2.892264000000000      2.894213000000000     -1.275598000000000
C       3.220635000000000     -1.707837000000000      2.171525000000000
C       2.015954000000000      2.401527000000000     -2.414918000000000
C       2.655515000000000     -2.883201000000000      1.405938000000000
C       2.386191000000000      1.197716000000000     -3.007600000000000
C       2.878913000000000     -3.057761000000000      0.110091000000000
C       1.459872000000000      0.437900000000000     -3.736896000000000
C       1.979236000000000     -3.907018000000000     -0.770726000000000
C       0.097478000000000      0.813202000000000     -3.829943000000000
C       0.533759000000000     -3.888119000000000     -0.260216000000000
C      -0.907124000000000     -0.243272000000000     -3.932905000000000
C      -0.560575000000000     -3.767143000000000     -1.150371000000000
C      -2.248485000000000      0.026726000000000     -3.490885000000000
C      -3.754787000000000     -0.712095000000000     -1.666606000000000
C      -3.671179000000000     -1.802456000000000     -0.795239000000000
C      -1.865413000000000     -3.519802000000000     -0.641257000000000
C      -2.595952000000000      1.357572000000000     -3.132941000000000
C      -3.987618000000000      0.581882000000000     -1.200898000000000
C      -3.736831000000000     -1.610309000000000      0.577397000000000
C      -2.055294000000000     -3.451502000000000      0.728933000000000
C      -4.121721000000000      0.790959000000000      0.188883000000000
C      -3.977097000000000     -0.305595000000000      1.082480000000000
C      -4.211804000000000      2.230482000000000      0.717773000000000
C      -3.871901000000000     -0.065854000000000      2.589239000000000
C      -3.394761000000000      2.360770000000000      1.993212000000000
C      -3.245177000000000      1.290212000000000      2.856445000000000
C      -2.473968000000000      3.886263000000000      0.522530000000000
C      -1.823603000000000     -0.263145000000000      3.828062000000000
C      -2.374783000000000      3.312192000000000      1.848239000000000
C      -2.059547000000000      1.155971000000000      3.578969000000000
C       0.089649000000000      3.659192000000000      1.824877000000000
C       0.315449000000000      1.569962000000000      3.697770000000000
C       1.341372000000000      3.096407000000000      2.111983000000000
C       1.449871000000000      2.085360000000000      3.081748000000000
C       2.525171000000000      3.244590000000000      1.170358000000000
C       2.579503000000000      1.048889000000000      3.148622000000000
C       3.141174000000000      1.882797000000000      0.889196000000000
C       3.143716000000000      0.800164000000000      1.766591000000000
C       3.367867000000000      1.697185000000000     -0.468818000000000
C       3.418223000000000     -0.490253000000000      1.265276000000000
C       3.615518000000000      0.428273000000000     -0.989842000000000
C       3.659601000000000     -0.677282000000000     -0.115427000000000
C       3.514399000000000      0.286705000000000     -2.495472000000000
C       3.738649000000000     -2.098608000000000     -0.685795000000000
C       2.999117000000000     -1.082304000000000     -2.872211000000000
C       3.089855000000000     -2.175820000000000     -2.042902000000000
C       1.872650000000000     -0.949739000000000     -3.711168000000000
C       2.102362000000000     -3.195731000000000     -2.089043000000000
C       0.914603000000000     -1.949935000000000     -3.763021000000000
C       1.043845000000000     -3.108731000000000     -2.961136000000000
C      -0.478957000000000     -1.600375000000000     -3.892729000000000
C      -0.328408000000000     -3.679661000000000     -2.660198000000000
C      -2.980602000000000     -1.012427000000000     -2.874333000000000
C      -2.998350000000000     -2.985808000000000     -1.499493000000000
C      -1.238000000000000     -2.618723000000000     -3.272162000000000
C      -2.471394000000000     -2.312910000000000     -2.747058000000000
C      -1.095510000000000      3.153958000000000      2.473508000000000
C      -0.974805000000000      2.067049000000000      3.406513000000000
Cl      4.806900000000000     -2.117211000000000      3.015526000000000
Cl      5.505587000000000     -2.633873000000000     -0.737777000000000
Cl     -4.200744000000000     -4.318860000000000     -1.897077000000000
Cl     -4.591823000000000     -3.925874000000000      1.822867000000000
Cl     -5.522939000000000     -0.253339000000000      3.378809000000000
Cl     -5.975377000000000      2.695179000000000      0.942150000000000
Cl     -5.331551000000000      1.974553000000000     -3.171731000000000
Cl      5.132765000000000      0.631545000000000     -3.297272000000000
Cl      4.291691000000000      3.909092000000000     -1.913011000000000
Cl      3.913139000000000      1.561560000000000      4.307034000000000
Cl      0.705129000000000      5.657332000000000     -2.864882000000000
Cl      3.760636000000000      4.414109000000000      1.881578000000000
Cl      0.174992000000000      6.344690000000000      1.158994000000000
Cl     -0.575243000000000     -5.337658000000000     -3.426969000000000
Cl      2.573159000000000     -5.652795000000000     -0.869932000000000
Cl      1.918381000000000     -5.072834000000000      2.982175000000000
