102

C       1.415509000000000      4.622865000000000     -0.554121000000000
C      -3.062660000000000      3.234484000000000     -1.544548000000000
C       0.740614000000000     -3.134555000000000      2.182948000000000
C      -3.517133000000000     -2.109972000000000      0.609981000000000
C       1.610627000000000      3.604657000000000     -1.665332000000000
C      -2.341691000000000      4.091682000000000     -0.535774000000000
C       0.918827000000000     -3.942339000000000      0.913891000000000
C      -2.827168000000000     -2.140637000000000      1.951118000000000
C       0.515964000000000      3.256333000000000     -2.534291000000000
C      -2.548007000000000      3.956825000000000      0.814330000000000
C      -2.877809000000000     -1.112020000000000      2.790549000000000
C      -0.220693000000000     -3.663399000000000     -0.049352000000000
C      -0.800759000000000      3.709826000000000     -2.225182000000000
C      -1.462898000000000     -3.355972000000000      0.501625000000000
C      -1.058085000000000      4.482066000000000     -1.029937000000000
C      -1.740843000000000     -3.192323000000000      1.984123000000000
C      -0.029194000000000      4.833087000000000     -0.185354000000000
C      -0.493115000000000     -2.711498000000000      2.689830000000000
C      -0.204048000000000      4.608049000000000      1.209904000000000
C      -0.537558000000000     -1.598844000000000      3.551156000000000
C       0.994743000000000      4.120520000000000      1.801066000000000
C       0.657843000000000     -0.923084000000000      3.835711000000000
C       1.995183000000000      4.103401000000000      0.761794000000000
C       1.889424000000000     -1.369059000000000      3.337514000000000
C       3.056206000000000      3.284065000000000      0.804025000000000
C       1.927800000000000     -2.460888000000000      2.504671000000000
C       3.703595000000000      2.754046000000000     -0.442397000000000
C       2.995039000000000     -2.638554000000000      1.456625000000000
C       2.778969000000000      2.810549000000000     -1.650027000000000
C       2.224956000000000     -3.388486000000000      0.394560000000000
C       2.918495000000000      1.789982000000000     -2.581915000000000
C       2.449004000000000     -3.208486000000000     -0.899614000000000
C       1.871007000000000      1.474764000000000     -3.472550000000000
C       1.424647000000000     -3.560450000000000     -1.961166000000000
C       0.614516000000000      2.117444000000000     -3.405656000000000
C      -0.000144000000000     -3.413494000000000     -1.416801000000000
C      -0.575367000000000      1.367490000000000     -3.791789000000000
C      -1.022096000000000     -2.824233000000000     -2.200408000000000
C      -1.853708000000000      1.773884000000000     -3.285662000000000
C      -3.549164000000000      0.811157000000000     -1.763511000000000
C      -3.671819000000000     -0.476438000000000     -1.250582000000000
C      -2.254811000000000     -2.475858000000000     -1.613305000000000
C      -1.940094000000000      2.943269000000000     -2.549728000000000
C      -3.527343000000000      1.924303000000000     -0.922846000000000
C      -3.763662000000000     -0.694399000000000      0.122579000000000
C      -2.461950000000000     -2.763852000000000     -0.266412000000000
C      -3.666849000000000      1.727664000000000      0.468039000000000
C      -3.777900000000000      0.411732000000000      0.990545000000000
C      -3.484498000000000      2.919555000000000      1.413569000000000
C      -3.661605000000000      0.153388000000000      2.494685000000000
C      -2.695833000000000      2.480115000000000      2.633977000000000
C      -2.770599000000000      1.191733000000000      3.121486000000000
C      -1.448065000000000      4.163685000000000      1.682558000000000
C      -1.826976000000000     -0.875349000000000      3.850327000000000
C      -1.499200000000000      3.207038000000000      2.756814000000000
C      -1.678116000000000      0.632075000000000      3.776543000000000
C       0.972943000000000      3.090261000000000      2.795902000000000
C       0.727229000000000      0.527399000000000      3.983473000000000
C       2.103960000000000      2.221225000000000      2.891816000000000
C       1.964168000000000      0.975932000000000      3.504471000000000
C       3.315975000000000      2.410621000000000      1.999564000000000
C       2.873554000000000     -0.230646000000000      3.228251000000000
C       3.683082000000000      1.107749000000000      1.312687000000000
C       3.443614000000000     -0.163264000000000      1.825402000000000
C       3.907515000000000      1.298832000000000     -0.047407000000000
C       3.468197000000000     -1.272185000000000      0.950846000000000
C       3.912669000000000      0.221420000000000     -0.932133000000000
C       3.708154000000000     -1.081479000000000     -0.428509000000000
C       3.825244000000000      0.561240000000000     -2.406801000000000
C       3.508989000000000     -2.250257000000000     -1.400895000000000
C       3.051338000000000     -0.499542000000000     -3.155820000000000
C       2.896204000000000     -1.783892000000000     -2.695618000000000
C       1.997536000000000      0.103322000000000     -3.877543000000000
C       1.719271000000000     -2.522868000000000     -3.008817000000000
C       0.848364000000000     -0.620738000000000     -4.200138000000000
C       0.726478000000000     -1.973756000000000     -3.777076000000000
C      -0.422074000000000      0.018405000000000     -4.199655000000000
C      -0.732851000000000     -2.331150000000000     -3.615809000000000
C      -3.001117000000000      0.790550000000000     -3.176692000000000
C      -3.240776000000000     -1.520823000000000     -2.269410000000000
C      -1.409932000000000     -0.982973000000000     -3.852509000000000
C      -2.580906000000000     -0.647266000000000     -3.297383000000000
C      -0.313300000000000      2.636153000000000      3.300014000000000
C      -0.438176000000000      1.322024000000000      3.869568000000000
Cl      4.431570000000000     -3.602029000000000      2.088568000000000
Cl      5.125457000000000     -3.097922000000000     -1.678856000000000
Cl     -4.678217000000000     -2.451534000000000     -2.955525000000000
Cl     -5.092248000000000     -3.063819000000000      0.645385000000000
Cl     -5.338251000000000      0.105153000000000      3.255230000000000
Cl     -5.119228000000000      3.638187000000000      1.840876000000000
Cl     -4.480053000000000      4.144314000000000     -2.284178000000000
Cl      5.499272000000000      0.792972000000000     -3.134147000000000
Cl      5.302276000000000      3.604935000000000     -0.803747000000000
Cl     -1.277726000000000     -3.591577000000000     -4.839420000000000
Cl      1.664880000000000     -5.274884000000000     -2.600215000000000
Cl      1.040812000000000     -5.750779000000000      1.263375000000000
Cl      4.219101000000000     -0.368017000000000      4.472088000000000
Cl     -2.347534000000000     -4.759194000000000      2.745036000000000
Cl      2.226905000000000      6.229516000000000     -1.042266000000000
Cl      4.745320000000000      3.062217000000000      3.014527000000000
Cl     -4.321028000000000      1.189570000000000     -4.442921000000000
Cl     -2.436669000000000     -1.371286000000000      5.540405000000000
