102

C       0.020029000000000      1.427323000000000      4.044102000000000
C      -3.717465000000000      2.323675000000000      1.212220000000000
C       1.685299000000000     -2.540532000000000     -3.265710000000000
C      -2.629617000000000     -0.534028000000000     -3.671593000000000
C       0.600132000000000      2.387933000000000      3.006082000000000
C      -3.358437000000000      1.412070000000000      2.361420000000000
C       1.992260000000000     -1.111358000000000     -3.672836000000000
C      -2.038682000000000     -1.864674000000000     -3.275533000000000
C      -0.270148000000000      3.226912000000000      2.218381000000000
C      -3.573321000000000      0.049173000000000      2.335675000000000
C      -2.470227000000000     -2.561361000000000     -2.172635000000000
C       1.041763000000000     -0.192870000000000     -4.170787000000000
C      -1.671812000000000      3.009206000000000      2.264295000000000
C      -0.312894000000000     -0.644404000000000     -4.233574000000000
C      -2.239387000000000      1.916553000000000      3.042974000000000
C      -0.693663000000000     -1.941844000000000     -3.658901000000000
C      -1.416349000000000      1.084727000000000      3.777664000000000
C       0.217780000000000     -2.761310000000000     -2.986352000000000
C      -1.646014000000000     -0.295594000000000      3.761774000000000
C      -0.227496000000000     -3.472806000000000     -1.853053000000000
C      -0.373907000000000     -1.063408000000000      3.990275000000000
C       0.759634000000000     -3.993956000000000     -0.834314000000000
C       0.657253000000000      0.054820000000000      3.957971000000000
C       2.104825000000000     -3.309219000000000     -0.931719000000000
C       1.886563000000000     -0.120445000000000      3.494586000000000
C       2.527479000000000     -2.670403000000000     -2.017423000000000
C       2.750769000000000      1.028711000000000      3.038085000000000
C       3.632430000000000     -1.630979000000000     -1.983053000000000
C       1.935818000000000      2.245226000000000      2.637534000000000
C       3.150668000000000     -0.667247000000000     -3.032769000000000
C       2.454761000000000      3.041591000000000      1.600312000000000
C       3.442324000000000      0.676141000000000     -2.977193000000000
C       1.643719000000000      3.912007000000000      0.879653000000000
C       2.547072000000000      1.612743000000000     -3.524896000000000
C       0.233386000000000      3.937189000000000      1.073378000000000
C       1.287513000000000      1.221799000000000     -4.066245000000000
C      -0.632768000000000      4.239444000000000     -0.039857000000000
C       0.162941000000000      2.143037000000000     -3.955161000000000
C      -1.966947000000000      3.814395000000000     -0.013143000000000
C      -3.438527000000000      2.223578000000000     -1.235457000000000
C      -3.143635000000000      1.522664000000000     -2.409764000000000
C      -1.183007000000000      1.619283000000000     -3.951635000000000
C      -2.484455000000000      3.245643000000000      1.162332000000000
C      -3.822517000000000      1.546480000000000     -0.086034000000000
C      -3.269774000000000      0.137050000000000     -2.473847000000000
C      -1.380922000000000      0.219041000000000     -4.145559000000000
C      -3.979145000000000      0.136344000000000     -0.132264000000000
C      -3.704043000000000     -0.564474000000000     -1.328060000000000
C      -4.213245000000000     -0.646676000000000      1.161884000000000
C      -3.621079000000000     -2.094914000000000     -1.316451000000000
C      -3.457702000000000     -1.961079000000000      1.158361000000000
C      -3.196640000000000     -2.617143000000000      0.036346000000000
C      -2.707749000000000     -0.809383000000000      3.038909000000000
C      -1.565980000000000     -3.366918000000000     -1.463000000000000
C      -2.666181000000000     -2.181924000000000      2.433586000000000
C      -2.078297000000000     -3.628343000000000     -0.060642000000000
C      -0.140225000000000     -2.066343000000000      2.861472000000000
C       0.329692000000000     -3.572298000000000      0.558269000000000
C       1.178297000000000     -2.268438000000000      2.414668000000000
C       1.395809000000000     -3.035190000000000      1.272805000000000
C       2.342214000000000     -1.430417000000000      2.908080000000000
C       2.663593000000000     -3.007888000000000      0.436469000000000
C       3.144895000000000     -0.939008000000000      1.717125000000000
C       3.282589000000000     -1.625178000000000      0.511491000000000
C       3.380234000000000      0.428748000000000      1.792228000000000
C       3.705324000000000     -0.922072000000000     -0.628264000000000
C       3.777773000000000      1.155628000000000      0.669224000000000
C       3.965569000000000      0.473057000000000     -0.551027000000000
C       3.697058000000000      2.671089000000000      0.777481000000000
C       4.234871000000000      1.276495000000000     -1.828785000000000
C       3.375922000000000      3.302528000000000     -0.556927000000000
C       3.626692000000000      2.667680000000000     -1.743118000000000
C       2.233836000000000      4.150120000000000     -0.430748000000000
C       2.723835000000000      2.864200000000000     -2.828789000000000
C       1.427441000000000      4.441288000000000     -1.504579000000000
C       1.650611000000000      3.736010000000000     -2.714906000000000
C      -0.043499000000000      4.767239000000000     -1.351268000000000
C       0.373000000000000      3.393067000000000     -3.300949000000000
C      -2.786881000000000      3.607547000000000     -1.274919000000000
C      -2.171303000000000      2.291008000000000     -3.197037000000000
C      -0.638839000000000      4.021174000000000     -2.539108000000000
C      -1.898293000000000      3.473336000000000     -2.492815000000000
C      -1.227521000000000     -2.601858000000000      2.126237000000000
C      -0.986388000000000     -3.344941000000000      0.955603000000000
Cl     -5.272354000000000      3.242689000000000      1.552384000000000
Cl     -6.024462000000000     -0.892607000000000      1.421991000000000
Cl     -5.226972000000000     -2.808559000000000     -1.868078000000000
Cl     -4.021580000000000      4.953360000000000     -1.484461000000000
Cl      5.268305000000000     -2.372395000000000     -2.389040000000000
Cl      6.042981000000000      1.338180000000000     -2.154968000000000
Cl     -3.863468000000000     -0.691062000000000     -5.037137000000000
Cl      5.255094000000000      3.353499000000000      1.477628000000000
Cl      3.999458000000000      1.463341000000000      4.319930000000000
Cl      3.879557000000000     -4.285230000000000      0.967337000000000
Cl      3.375535000000000     -2.383779000000000      4.097036000000000
Cl      0.218153000000000      2.172579000000000      5.733613000000000
Cl     -0.372930000000000     -1.943182000000000      5.610208000000000
Cl     -3.458131000000000     -3.445198000000000      3.522271000000000
Cl     -2.705794000000000     -5.353445000000000      0.131361000000000
Cl      0.927870000000000     -5.825551000000000     -0.973207000000000
Cl      2.242774000000000     -3.731992000000000     -4.583828000000000
Cl     -0.334163000000000      6.594979000000000     -1.451127000000000
