102

C       1.118731000000000      3.605155000000000     -2.427740000000000
C      -3.400041000000000      2.760320000000000     -1.137063000000000
C       1.465169000000000     -2.877495000000000      3.110907000000000
C      -3.111646000000000     -1.526692000000000      2.749697000000000
C       0.807726000000000      2.272393000000000     -3.106798000000000
C      -2.312337000000000      3.764850000000000     -0.834841000000000
C       0.968196000000000     -3.604073000000000      1.876593000000000
C      -1.924297000000000     -1.253820000000000      3.643715000000000
C      -0.558732000000000      1.866129000000000     -3.329013000000000
C      -1.940559000000000      4.082910000000000      0.449080000000000
C      -1.590290000000000      0.013548000000000      4.040375000000000
C      -0.401568000000000     -3.728592000000000      1.512453000000000
C      -1.612261000000000      2.607759000000000     -2.728240000000000
C      -1.342251000000000     -3.083256000000000      2.345273000000000
C      -1.337292000000000      3.739915000000000     -1.857572000000000
C      -0.911034000000000     -2.209598000000000      3.437738000000000
C      -0.031115000000000      4.122347000000000     -1.611189000000000
C       0.439428000000000     -1.919041000000000      3.668433000000000
C       0.354341000000000      4.441150000000000     -0.302784000000000
C       0.789543000000000     -0.607455000000000      4.046969000000000
C       1.812232000000000      4.153053000000000     -0.064626000000000
C       2.197151000000000     -0.085787000000000      3.856359000000000
C       2.187279000000000      3.453801000000000     -1.359361000000000
C       2.991944000000000     -0.915360000000000      2.876669000000000
C       3.104118000000000      2.498438000000000     -1.409128000000000
C       2.675204000000000     -2.164036000000000      2.548253000000000
C       3.167282000000000      1.499768000000000     -2.537071000000000
C       3.155720000000000     -2.822500000000000      1.267552000000000
C       1.836872000000000      1.342682000000000     -3.251906000000000
C       1.961343000000000     -3.665416000000000      0.915662000000000
C       1.545775000000000      0.066754000000000     -3.764435000000000
C       1.644431000000000     -3.981973000000000     -0.398762000000000
C       0.238177000000000     -0.316715000000000     -4.044130000000000
C       0.317137000000000     -4.187585000000000     -0.770678000000000
C      -0.866459000000000      0.517906000000000     -3.722526000000000
C      -0.761705000000000     -3.971085000000000      0.140696000000000
C      -2.124633000000000     -0.085384000000000     -3.355738000000000
C      -2.029431000000000     -3.499366000000000     -0.358262000000000
C      -3.040089000000000      0.637859000000000     -2.592179000000000
C      -3.965680000000000      0.495079000000000     -0.309032000000000
C      -3.900122000000000     -0.534378000000000      0.622437000000000
C      -2.896393000000000     -2.805379000000000      0.491828000000000
C      -2.794274000000000      1.995562000000000     -2.324393000000000
C      -3.583102000000000      1.794354000000000      0.022324000000000
C      -3.438836000000000     -0.300932000000000      1.915713000000000
C      -2.562389000000000     -2.640021000000000      1.850344000000000
C      -3.148827000000000      2.065863000000000      1.338700000000000
C      -3.071285000000000      1.010973000000000      2.286414000000000
C      -2.584678000000000      3.455771000000000      1.674889000000000
C      -2.398977000000000      1.237097000000000      3.647428000000000
C      -1.386241000000000      3.312749000000000      2.601234000000000
C      -1.306119000000000      2.279113000000000      3.518768000000000
C      -0.581132000000000      4.380206000000000      0.715381000000000
C      -0.227265000000000      0.341362000000000      4.210379000000000
C      -0.226188000000000      3.822312000000000      2.007845000000000
C      -0.061245000000000      1.750151000000000      3.857172000000000
C       2.029693000000000      3.248934000000000      1.150595000000000
C       2.193807000000000      1.257610000000000      3.149700000000000
C       3.019384000000000      2.271617000000000      1.093671000000000
C       3.099162000000000      1.291565000000000      2.110957000000000
C       3.806283000000000      1.993526000000000     -0.174048000000000
C       3.823372000000000     -0.038374000000000      1.972516000000000
C       3.811992000000000      0.501227000000000     -0.448103000000000
C       3.769572000000000     -0.492860000000000      0.528018000000000
C       3.462723000000000      0.224995000000000     -1.764734000000000
C       3.402654000000000     -1.797972000000000      0.157982000000000
C       3.068564000000000     -1.055255000000000     -2.153046000000000
C       3.055140000000000     -2.086822000000000     -1.189373000000000
C       2.415722000000000     -1.176088000000000     -3.520887000000000
C       2.469841000000000     -3.455638000000000     -1.560057000000000
C       1.380797000000000     -2.277583000000000     -3.532265000000000
C       1.406858000000000     -3.320296000000000     -2.638508000000000
C       0.136756000000000     -1.765611000000000     -3.966646000000000
C       0.180277000000000     -3.862376000000000     -2.180107000000000
C      -1.055016000000000     -2.357192000000000     -3.588866000000000
C      -1.033090000000000     -3.418647000000000     -2.674154000000000
C      -2.342982000000000     -1.587311000000000     -3.526287000000000
C      -2.299724000000000     -3.484092000000000     -1.862917000000000
C      -4.078963000000000     -0.048194000000000     -1.723252000000000
C      -3.990025000000000     -1.897134000000000     -0.045304000000000
C      -2.990573000000000     -2.204115000000000     -2.298291000000000
C      -3.769715000000000     -1.505538000000000     -1.485100000000000
C       1.052725000000000      3.217817000000000      2.211946000000000
C       1.129155000000000      2.186779000000000      3.210705000000000
Cl      4.680363000000000     -3.818207000000000      1.545506000000000
Cl      3.820399000000000     -4.591560000000000     -2.066907000000000
Cl     -5.644706000000000     -2.670490000000000      0.202380000000000
Cl     -4.584137000000000     -2.063953000000000      3.708029000000000
Cl     -3.664267000000000      1.668807000000000      4.903874000000000
Cl     -3.917339000000000      4.508601000000000      2.370645000000000
Cl     -4.983325000000000      3.597729000000000     -1.542438000000000
Cl      3.681875000000000     -1.442000000000000     -4.824532000000000
Cl      4.508961000000000      1.927292000000000     -3.724148000000000
Cl      5.571647000000000      0.059166000000000      2.549529000000000
Cl      1.618697000000000      4.841863000000000     -3.720893000000000
Cl      5.511063000000000      2.679657000000000     -0.036329000000000
Cl      2.779435000000000      5.718372000000000      0.168425000000000
Cl      3.050281000000000      0.036477000000000      5.501172000000000
Cl      1.947378000000000     -4.093021000000000      4.437357000000000
Cl     -5.769405000000000      0.162492000000000     -2.422776000000000
Cl     -3.362448000000000     -1.881610000000000     -5.052214000000000
Cl     -3.304599000000000     -4.979981000000000     -2.315723000000000
