102

C      -1.122133000000000      4.560885000000000      0.954676000000000
C       3.381502000000000      2.959266000000000      1.131065000000000
C      -1.170702000000000     -2.854328000000000     -2.628618000000000
C       3.313520000000000     -2.152796000000000     -1.585286000000000
C      -1.201322000000000      3.434582000000000      1.980067000000000
C       2.576817000000000      3.942625000000000      0.314821000000000
C      -1.208271000000000     -3.792660000000000     -1.435895000000000
C       2.449154000000000     -2.028276000000000     -2.810829000000000
C      -0.006295000000000      2.966239000000000      2.633901000000000
C       2.579629000000000      3.935221000000000     -1.047363000000000
C       2.393314000000000     -0.886187000000000     -3.506754000000000
C       0.068369000000000     -3.663247000000000     -0.621523000000000
C       1.264480000000000      3.415477000000000      2.174029000000000
C       1.234688000000000     -3.339004000000000     -1.310104000000000
C       1.384948000000000      4.305028000000000      1.028980000000000
C       1.305713000000000     -3.015781000000000     -2.789164000000000
C       0.262978000000000      4.751948000000000      0.386520000000000
C      -0.009963000000000     -2.429872000000000     -3.253601000000000
C       0.228598000000000      4.687984000000000     -1.039444000000000
C      -0.033497000000000     -1.198117000000000     -3.985716000000000
C      -1.060358000000000      4.285369000000000     -1.473399000000000
C      -1.246542000000000     -0.462282000000000     -4.027988000000000
C      -1.916577000000000      4.203315000000000     -0.295852000000000
C      -2.418487000000000     -0.939296000000000     -3.402903000000000
C      -3.009101000000000      3.437385000000000     -0.260814000000000
C      -2.375260000000000     -2.110530000000000     -2.699781000000000
C      -3.482566000000000      2.789185000000000      1.011747000000000
C      -3.283546000000000     -2.378882000000000     -1.528969000000000
C      -2.380906000000000      2.688774000000000      2.058591000000000
C      -2.401397000000000     -3.261356000000000     -0.677713000000000
C      -2.421856000000000      1.568243000000000      2.905124000000000
C      -2.435514000000000     -3.226670000000000      0.646683000000000
C      -1.290358000000000      1.143148000000000      3.593558000000000
C      -1.285860000000000     -3.718404000000000      1.505129000000000
C      -0.021175000000000      1.745674000000000      3.392525000000000
C       0.052407000000000     -3.557461000000000      0.782128000000000
C       1.171956000000000      0.942511000000000      3.517670000000000
C       1.198776000000000     -3.084972000000000      1.468853000000000
C       2.342730000000000      1.343455000000000      2.878074000000000
C       3.776447000000000      0.509769000000000      1.043215000000000
C       3.772415000000000     -0.719338000000000      0.392003000000000
C       2.348314000000000     -2.713136000000000      0.746446000000000
C       2.388456000000000      2.599145000000000      2.244748000000000
C       3.701575000000000      1.706813000000000      0.329806000000000
C       3.676506000000000     -0.796134000000000     -0.997137000000000
C       2.357493000000000     -2.864337000000000     -0.637817000000000
C       3.648029000000000      1.655087000000000     -1.078007000000000
C       3.625310000000000      0.398946000000000     -1.737243000000000
C       3.384015000000000      2.944229000000000     -1.870597000000000
C       3.288312000000000      0.311399000000000     -3.226128000000000
C       2.424327000000000      2.658184000000000     -3.014866000000000
C       2.387576000000000      1.456359000000000     -3.628225000000000
C       1.373726000000000      4.279247000000000     -1.744520000000000
C       1.160643000000000     -0.443094000000000     -4.136282000000000
C       1.228061000000000      3.452221000000000     -2.883880000000000
C       1.145680000000000      0.962792000000000     -4.154501000000000
C      -1.229994000000000      3.398817000000000     -2.559658000000000
C      -1.260612000000000      0.971945000000000     -4.002614000000000
C      -2.418954000000000      2.564444000000000     -2.565617000000000
C      -2.427746000000000      1.411004000000000     -3.304054000000000
C      -3.481886000000000      2.701306000000000     -1.486218000000000
C      -3.333187000000000      0.202495000000000     -3.032135000000000
C      -3.801469000000000      1.341988000000000     -0.886523000000000
C      -3.693444000000000      0.129316000000000     -1.560200000000000
C      -3.806220000000000      1.390169000000000      0.503175000000000
C      -3.628895000000000     -1.067334000000000     -0.815456000000000
C      -3.718272000000000      0.222427000000000      1.260265000000000
C      -3.650719000000000     -1.022834000000000      0.597614000000000
C      -3.399268000000000      0.393549000000000      2.732900000000000
C      -3.369678000000000     -2.299844000000000      1.397723000000000
C      -2.571535000000000     -0.762816000000000      3.240077000000000
C      -2.548384000000000     -1.996874000000000      2.623715000000000
C      -1.407335000000000     -0.284228000000000      3.860394000000000
C      -1.383358000000000     -2.784329000000000      2.675282000000000
C      -0.276218000000000     -1.072513000000000      3.957578000000000
C      -0.261278000000000     -2.330557000000000      3.345087000000000
C       1.095055000000000     -0.476279000000000      4.081059000000000
C       1.133589000000000     -2.732460000000000      2.954182000000000
C       3.437034000000000      0.355239000000000      2.515955000000000
C       3.442130000000000     -1.851382000000000      1.348778000000000
C       1.903654000000000     -1.455315000000000      3.253315000000000
C       2.955189000000000     -1.073513000000000      2.542743000000000
C      -0.047087000000000      2.972872000000000     -3.294556000000000
C      -0.071482000000000      1.715775000000000     -3.999398000000000
Cl     -4.966988000000000      3.633323000000000      1.710659000000000
Cl     -1.741129000000000      6.132956000000000      1.718633000000000
Cl     -4.938245000000000      0.584999000000000      3.717519000000000
Cl     -4.964947000000000     -3.119053000000000      1.824785000000000
Cl     -4.833874000000000     -3.235926000000000     -2.039640000000000
Cl      4.925570000000000      3.729997000000000      1.772179000000000
Cl      4.978826000000000      3.657869000000000     -2.441590000000000
Cl      4.830239000000000      0.241061000000000     -4.223359000000000
Cl      4.908142000000000      0.576401000000000      3.602290000000000
Cl      1.648378000000000     -0.453381000000000      5.853755000000000
Cl      4.840887000000000     -3.137798000000000     -1.900899000000000
Cl      4.921178000000000     -2.866473000000000      1.764057000000000
Cl      1.753125000000000     -4.151594000000000      3.955142000000000
Cl     -1.510294000000000     -5.482050000000000      2.003405000000000
Cl     -1.471234000000000     -5.540998000000000     -1.960690000000000
Cl      1.718327000000000     -4.526960000000000     -3.792714000000000
Cl     -4.844725000000000      0.234909000000000     -4.077077000000000
Cl     -5.004204000000000      3.499631000000000     -2.196874000000000
