104

C       3.876948000000000      2.162084000000000      1.083569000000000
C       3.523811000000000     -2.642221000000000      0.924277000000000
C      -3.333569000000000      0.511304000000000     -2.569632000000000
C      -1.455875000000000     -3.699365000000000     -1.845986000000000
C       2.773502000000000      1.860361000000000      2.088016000000000
C       4.282425000000000     -1.565781000000000      0.192909000000000
C      -4.235349000000000      0.208260000000000     -1.387027000000000
C      -1.567765000000000     -2.740112000000000     -3.001268000000000
C       2.633396000000000      0.528886000000000      2.618931000000000
C       4.215704000000000     -1.440654000000000     -1.141158000000000
C      -0.481895000000000     -2.333697000000000     -3.670690000000000
C      -3.760232000000000     -1.043480000000000     -0.667532000000000
C       3.394833000000000     -0.543171000000000      2.083608000000000
C      -3.142861000000000     -2.028127000000000     -1.435069000000000
C       4.522342000000000     -0.378185000000000      1.098552000000000
C      -2.823725000000000     -1.903468000000000     -2.910950000000000
C       4.390063000000000      0.926462000000000      0.402154000000000
C      -2.613396000000000     -0.448951000000000     -3.272165000000000
C       4.328237000000000      1.026297000000000     -0.946062000000000
C      -1.441733000000000     -0.043160000000000     -3.977133000000000
C       3.803832000000000      2.357852000000000     -1.411906000000000
C      -1.063950000000000      1.316597000000000     -3.930754000000000
C       3.340528000000000      2.948551000000000     -0.100796000000000
C      -1.825060000000000      2.271621000000000     -3.238592000000000
C       2.288514000000000      3.750208000000000     -0.007840000000000
C      -2.938333000000000      1.866150000000000     -2.546669000000000
C       1.541432000000000      3.944291000000000      1.288709000000000
C      -3.419544000000000      2.583838000000000     -1.313141000000000
C       1.744478000000000      2.787776000000000      2.252547000000000
C      -4.031463000000000      1.440681000000000     -0.537820000000000
C       0.658568000000000      2.467657000000000      3.083774000000000
C      -3.992727000000000      1.384883000000000      0.785844000000000
C       0.553108000000000      1.215272000000000      3.675764000000000
C      -4.155904000000000      0.086232000000000      1.552423000000000
C       1.460555000000000      0.168823000000000      3.370521000000000
C      -3.652377000000000     -1.104887000000000      0.734852000000000
C       1.000729000000000     -1.197906000000000      3.408628000000000
C      -2.889793000000000     -2.134416000000000      1.340958000000000
C       1.683631000000000     -2.169577000000000      2.689727000000000
C       1.255946000000000     -3.662616000000000      0.776999000000000
C       0.061567000000000     -3.923386000000000      0.111701000000000
C      -2.233418000000000     -3.089684000000000      0.541503000000000
C       2.898508000000000     -1.831993000000000      2.058067000000000
C       2.391210000000000     -3.228319000000000      0.087889000000000
C      -0.048150000000000     -3.744793000000000     -1.267390000000000
C      -2.385475000000000     -3.034152000000000     -0.841009000000000
C       2.310837000000000     -3.078212000000000     -1.308342000000000
C       1.088113000000000     -3.329038000000000     -1.982531000000000
C       3.473299000000000     -2.409576000000000     -2.045738000000000
C       0.909821000000000     -2.902318000000000     -3.438277000000000
C       2.939881000000000     -1.468648000000000     -3.108623000000000
C       1.773964000000000     -1.699539000000000     -3.739502000000000
C       4.246563000000000     -0.130209000000000     -1.769152000000000
C      -0.380020000000000     -0.982921000000000     -4.194010000000000
C       3.408668000000000     -0.121147000000000     -2.867846000000000
C       0.961205000000000     -0.595238000000000     -4.184150000000000
C       2.666051000000000      2.213929000000000     -2.415199000000000
C       0.330396000000000      1.711476000000000     -3.868376000000000
C       1.583088000000000      3.124854000000000     -2.347375000000000
C       0.443371000000000      2.886312000000000     -3.104850000000000
C       1.441879000000000      4.115087000000000     -1.202601000000000
C      -0.956382000000000      3.422647000000000     -2.783936000000000
C       0.050217000000000      4.000788000000000     -0.597349000000000
C      -1.100675000000000      3.629160000000000     -1.289505000000000
C       0.104897000000000      3.918342000000000      0.788702000000000
C      -2.232808000000000      3.201761000000000     -0.564002000000000
C      -0.993469000000000      3.475464000000000      1.524953000000000
C      -2.182990000000000      3.132351000000000      0.847015000000000
C      -0.732755000000000      3.111281000000000      2.973298000000000
C      -3.335911000000000      2.472004000000000      1.612391000000000
C      -1.626382000000000      1.973931000000000      3.407711000000000
C      -2.817123000000000      1.672158000000000      2.779083000000000
C      -0.851431000000000      0.933192000000000      3.942097000000000
C      -3.270119000000000      0.340467000000000      2.736480000000000
C      -1.314770000000000     -0.368753000000000      3.949282000000000
C      -2.531094000000000     -0.669065000000000      3.326621000000000
C      -0.377617000000000     -1.539601000000000      3.976364000000000
C      -2.556432000000000     -2.088518000000000      2.831426000000000
C       1.022776000000000     -3.467384000000000      2.264308000000000
C      -1.113304000000000     -3.964677000000000      1.073746000000000
C      -1.120045000000000     -2.517260000000000      3.087331000000000
C      -0.482276000000000     -3.378663000000000      2.307898000000000
C       2.573139000000000      1.032526000000000     -3.198183000000000
C       1.365486000000000      0.763418000000000     -3.920890000000000
Cl      1.975150000000000      5.549362000000000      2.077583000000000
Cl      5.233118000000000      3.092136000000000      1.944724000000000
Cl     -0.941597000000000      4.574322000000000      4.062772000000000
Cl     -4.537078000000000      3.764444000000000      2.143384000000000
Cl     -4.651690000000000      3.893937000000000     -1.712866000000000
Cl      4.636570000000000     -3.983908000000000      1.521207000000000
Cl      4.598203000000000     -3.687680000000000     -2.735007000000000
Cl      1.249764000000000     -4.311592000000000     -4.565568000000000
Cl      1.623208000000000     -4.882583000000000      3.275676000000000
Cl     -0.175030000000000     -2.187241000000000      5.701657000000000
Cl     -2.015449000000000     -5.398937000000000     -2.291847000000000
Cl     -1.710332000000000     -5.681146000000000      1.369130000000000
Cl     -3.756481000000000     -3.128794000000000      3.766919000000000
Cl     -5.911496000000000     -0.200642000000000      2.045496000000000
Cl     -5.996205000000000      0.030655000000000     -1.905228000000000
Cl     -4.177208000000000     -2.626009000000000     -3.960156000000000
Cl     -1.330720000000000      4.969838000000000     -3.699201000000000
Cl      1.791303000000000      5.827244000000000     -1.788802000000000
Cl      5.157615000000000      3.358011000000000     -2.190383000000000
Cl      6.168005000000000     -0.489900000000000      1.977121000000000
