104

C       1.125933000000000      0.662456000000000      4.260289000000000
C      -3.396971000000000     -0.254518000000000      2.980715000000000
C       1.469308000000000     -1.522800000000000     -3.932219000000000
C      -3.093317000000000     -1.906719000000000     -2.546728000000000
C       0.778949000000000      1.828343000000000      3.336832000000000
C      -2.279300000000000     -0.936300000000000      3.737282000000000
C       0.935158000000000     -0.113795000000000     -4.049951000000000
C      -1.867566000000000     -2.780758000000000     -2.667057000000000
C      -0.598650000000000      2.165583000000000      3.065537000000000
C      -1.877188000000000     -2.215098000000000      3.462690000000000
C      -1.496031000000000     -3.669739000000000     -1.686588000000000
C      -0.447390000000000      0.236101000000000     -3.997613000000000
C      -1.627038000000000      1.282107000000000      3.496897000000000
C      -1.359093000000000     -0.816042000000000     -3.778209000000000
C      -1.318686000000000      0.026346000000000      4.141486000000000
C      -0.881469000000000     -2.163645000000000     -3.445468000000000
C       0.004580000000000     -0.330631000000000      4.374140000000000
C       0.477018000000000     -2.462212000000000     -3.292239000000000
C       0.423663000000000     -1.628738000000000      4.102910000000000
C       0.855594000000000     -3.368623000000000     -2.279461000000000
C       1.878725000000000     -1.682933000000000      3.738498000000000
C       2.274170000000000     -3.389949000000000     -1.753409000000000
C       2.220826000000000     -0.207211000000000      3.668915000000000
C       3.026794000000000     -2.119792000000000     -2.079069000000000
C       3.124104000000000      0.275015000000000      2.826729000000000
C       2.681304000000000     -1.291491000000000     -3.061064000000000
C       3.145230000000000      1.724573000000000      2.412145000000000
C       3.133518000000000      0.156044000000000     -3.112588000000000
C       1.784535000000000      2.379694000000000      2.555693000000000
C       1.911707000000000      0.810152000000000     -3.697067000000000
C       1.453642000000000      3.377781000000000      1.615310000000000
C       1.569277000000000      2.113976000000000     -3.405458000000000
C       0.146338000000000      3.772273000000000      1.411242000000000
C       0.217198000000000      2.514906000000000     -3.409510000000000
C      -0.936325000000000      3.090476000000000      2.022840000000000
C      -0.843802000000000      1.562153000000000     -3.618697000000000
C      -2.216064000000000      3.006575000000000      1.352548000000000
C      -2.113251000000000      1.770146000000000     -2.984081000000000
C      -3.099741000000000      1.977310000000000      1.684787000000000
C      -4.006197000000000     -0.038889000000000      0.589772000000000
C      -3.934727000000000     -0.435826000000000     -0.740351000000000
C      -2.961294000000000      0.685037000000000     -2.731825000000000
C      -2.818496000000000      1.154433000000000      2.784968000000000
C      -3.595972000000000     -0.889126000000000      1.615112000000000
C      -3.442385000000000     -1.693326000000000     -1.087222000000000
C      -2.587302000000000     -0.599831000000000     -3.166815000000000
C      -3.132653000000000     -2.181595000000000      1.288652000000000
C      -3.051255000000000     -2.585902000000000     -0.066208000000000
C      -2.512647000000000     -3.060838000000000      2.377736000000000
C      -2.319668000000000     -3.885464000000000     -0.442255000000000
C      -1.299728000000000     -3.794937000000000      1.823866000000000
C      -1.237766000000000     -4.215576000000000      0.548937000000000
C      -0.495463000000000     -2.558658000000000      3.603662000000000
C      -0.137014000000000     -3.962739000000000     -1.495370000000000
C      -0.122427000000000     -3.458135000000000      2.572822000000000
C       0.085555000000000     -4.513604000000000     -0.103274000000000
C       2.102137000000000     -2.375533000000000      2.397338000000000
C       2.267155000000000     -3.329414000000000     -0.235874000000000
C       3.090961000000000     -1.879368000000000      1.539893000000000
C       3.169345000000000     -2.370607000000000      0.232520000000000
C       3.851723000000000     -0.600156000000000      1.839351000000000
C       3.867353000000000     -1.665094000000000     -0.913474000000000
C       3.836042000000000      0.293358000000000      0.612628000000000
C       3.794064000000000     -0.164781000000000     -0.703317000000000
C       3.460803000000000      1.594362000000000      0.932354000000000
C       3.397626000000000      0.722348000000000     -1.716850000000000
C       3.041627000000000      2.489442000000000     -0.052992000000000
C       3.026180000000000      2.055611000000000     -1.393426000000000
C       2.335998000000000      3.754197000000000      0.425904000000000
C       2.385421000000000      2.955830000000000     -2.448959000000000
C       1.300593000000000      4.236840000000000     -0.553514000000000
C       1.305664000000000      3.836994000000000     -1.838823000000000
C       0.020731000000000      4.601729000000000      0.160979000000000
C       0.065759000000000      3.626631000000000     -2.543621000000000
C      -1.203543000000000      4.223554000000000     -0.581253000000000
C      -1.157756000000000      3.824430000000000     -1.886371000000000
C      -2.471951000000000      3.809542000000000      0.090337000000000
C      -2.410057000000000      3.110815000000000     -2.319271000000000
C      -4.148716000000000      1.469824000000000      0.709726000000000
C      -4.054845000000000      0.752974000000000     -1.681594000000000
C      -3.108359000000000      2.946538000000000     -0.988013000000000
C      -3.861268000000000      1.890894000000000     -0.709405000000000
C       1.152267000000000     -3.335956000000000      1.913323000000000
C       1.243214000000000     -3.805144000000000      0.571778000000000
Cl      4.628553000000000      0.364825000000000     -4.166153000000000
Cl      3.675904000000000      3.955054000000000     -3.295080000000000
Cl     -5.714616000000000      0.814111000000000     -2.485619000000000
Cl     -4.526701000000000     -2.599912000000000     -3.461837000000000
Cl     -3.551974000000000     -5.245394000000000     -0.649448000000000
Cl     -3.776982000000000     -4.204623000000000      3.055273000000000
Cl     -4.956706000000000     -0.272079000000000      3.947934000000000
Cl      3.566672000000000      5.067167000000000      0.818318000000000
Cl      4.433222000000000      2.653918000000000      3.340790000000000
Cl      5.625425000000000     -2.201048000000000     -1.094563000000000
Cl      1.589841000000000      1.323802000000000      5.927154000000000
Cl      5.563611000000000     -0.978713000000000      2.400399000000000
Cl      2.870073000000000     -2.562041000000000      5.043927000000000
Cl      3.170107000000000     -4.881680000000000     -2.368799000000000
Cl      1.950081000000000     -2.188901000000000     -5.611686000000000
Cl     -5.839682000000000      1.974492000000000      1.229798000000000
Cl     -3.561605000000000      5.274718000000000      0.506538000000000
Cl     -3.387237000000000      4.159172000000000     -3.492671000000000
Cl      0.408928000000000     -6.351808000000000     -0.138841000000000
Cl     -0.019061000000000      6.426271000000000      0.606596000000000
