104

C      -3.125418000000000      2.995352000000000     -1.665850000000000
C      -3.552511000000000     -1.759902000000000     -2.304150000000000
C       2.854079000000000     -0.474588000000000      2.803335000000000
C       0.522572000000000     -4.095890000000000      1.032531000000000
C      -1.906913000000000      2.659847000000000     -2.515231000000000
C      -4.230291000000000     -0.666046000000000     -1.515358000000000
C       3.914593000000000     -0.760414000000000      1.759674000000000
C       0.546836000000000     -3.349235000000000      2.342786000000000
C      -1.875745000000000      1.453700000000000     -3.266138000000000
C      -4.525443000000000     -0.770951000000000     -0.211439000000000
C      -0.565197000000000     -2.900530000000000      2.913778000000000
C       3.400215000000000     -1.778176000000000      0.757340000000000
C      -2.906434000000000      0.453791000000000     -3.047550000000000
C       2.495800000000000     -2.732104000000000      1.219779000000000
C      -3.918714000000000      0.615292000000000     -2.116678000000000
C       1.919951000000000     -2.777854000000000      2.622483000000000
C      -3.931431000000000      1.780684000000000     -1.302458000000000
C       1.860725000000000     -1.379520000000000      3.194594000000000
C      -4.205608000000000      1.704371000000000      0.021502000000000
C       0.671740000000000     -0.887333000000000      3.764673000000000
C      -3.562658000000000      2.823401000000000      0.794419000000000
C       0.509805000000000      0.498492000000000      3.882359000000000
C      -2.741744000000000      3.496111000000000     -0.291492000000000
C       1.519075000000000      1.392904000000000      3.510794000000000
C      -1.582947000000000      4.093066000000000     -0.048449000000000
C       2.681811000000000      0.907752000000000      2.960054000000000
C      -0.564684000000000      4.347659000000000     -1.133008000000000
C       3.502288000000000      1.707086000000000      1.982466000000000
C      -0.730636000000000      3.418289000000000     -2.323223000000000
C       4.075255000000000      0.601732000000000      1.125895000000000
C       0.424465000000000      3.041924000000000     -2.989505000000000
C       4.286841000000000      0.753782000000000     -0.173813000000000
C       0.452601000000000      1.877988000000000     -3.782196000000000
C       4.398472000000000     -0.423036000000000     -1.124099000000000
C      -0.652457000000000      0.999434000000000     -3.857903000000000
C       3.562225000000000     -1.608433000000000     -0.630433000000000
C      -0.395014000000000     -0.427990000000000     -4.057512000000000
C       2.785809000000000     -2.378360000000000     -1.530412000000000
C      -1.402536000000000     -1.391985000000000     -3.642821000000000
C      -1.573118000000000     -3.206217000000000     -1.960477000000000
C      -0.587871000000000     -3.773462000000000     -1.161928000000000
C       1.845333000000000     -3.307556000000000     -1.042030000000000
C      -2.610080000000000     -0.948753000000000     -3.200567000000000
C      -2.733616000000000     -2.669513000000000     -1.406509000000000
C      -0.730747000000000     -3.808290000000000      0.225684000000000
C       1.724259000000000     -3.479684000000000      0.334173000000000
C      -2.923354000000000     -2.730197000000000     -0.014070000000000
C      -1.905988000000000     -3.299320000000000      0.804843000000000
C      -4.100420000000000     -1.965300000000000      0.616717000000000
C      -1.945804000000000     -3.128041000000000      2.322475000000000
C      -3.612091000000000     -1.269437000000000      1.864750000000000
C      -2.606927000000000     -1.820045000000000      2.653935000000000
C      -4.694219000000000      0.457298000000000      0.662203000000000
C      -0.568876000000000     -1.740161000000000      3.883533000000000
C      -3.814571000000000      0.099546000000000      1.828771000000000
C      -1.813067000000000     -1.001872000000000      3.427416000000000
C      -2.675225000000000      2.313069000000000      1.923113000000000
C      -0.778267000000000      1.162411000000000      3.655330000000000
C      -1.483632000000000      2.986569000000000      2.211336000000000
C      -0.558907000000000      2.418349000000000      3.108963000000000
C      -0.954479000000000      4.101258000000000      1.323212000000000
C       0.940601000000000      2.736337000000000      3.134491000000000
C       0.497441000000000      3.825310000000000      0.958029000000000
C       1.413824000000000      3.141463000000000      1.754482000000000
C       0.719235000000000      3.981126000000000     -0.404744000000000
C       2.594338000000000      2.636153000000000      1.168657000000000
C       1.864186000000000      3.465091000000000     -1.010648000000000
C       2.822412000000000      2.800183000000000     -0.216819000000000
C       1.849625000000000      3.384373000000000     -2.525474000000000
C       3.985792000000000      2.056729000000000     -0.885324000000000
C       2.624499000000000      2.178445000000000     -3.005459000000000
C       3.594987000000000      1.560067000000000     -2.252655000000000
C       1.807583000000000      1.394112000000000     -3.845776000000000
C       3.823369000000000      0.164224000000000     -2.382843000000000
C       2.034997000000000      0.027524000000000     -3.986504000000000
C       3.083316000000000     -0.591397000000000     -3.258654000000000
C       0.928549000000000     -0.868775000000000     -4.130768000000000
C       2.765036000000000     -2.048340000000000     -3.020595000000000
C      -1.024520000000000     -2.830944000000000     -3.325139000000000
C       0.735493000000000     -3.889867000000000     -1.904455000000000
C       1.341480000000000     -2.148482000000000     -3.562281000000000
C       0.451063000000000     -3.029977000000000     -3.103798000000000
C      -2.912359000000000      1.000975000000000      2.466260000000000
C      -1.927558000000000      0.411725000000000      3.335727000000000
Cl      4.811483000000000      2.694558000000000      2.818671000000000
Cl      5.460221000000000      3.163640000000000     -0.953810000000000
Cl      1.121686000000000     -5.631990000000000     -2.365071000000000
Cl      0.718603000000000     -5.909356000000000      1.288193000000000
Cl     -2.778770000000000     -4.572701000000000      3.101985000000000
Cl     -5.486898000000000     -3.135879000000000      0.936615000000000
Cl     -4.781210000000000     -2.718025000000000     -3.277123000000000
Cl      2.492227000000000      4.931977000000000     -3.275598000000000
Cl     -0.587428000000000      6.110727000000000     -1.664445000000000
Cl      3.915003000000000     -3.162755000000000     -3.926347000000000
Cl      6.150022000000000     -0.956666000000000     -1.349783000000000
Cl      5.490809000000000     -1.342417000000000      2.521253000000000
Cl      1.355743000000000      4.032554000000000      4.367947000000000
Cl      2.896729000000000     -3.884657000000000      3.727485000000000
Cl     -4.172177000000000      4.212904000000000     -2.594050000000000
Cl     -1.145826000000000      5.732963000000000      2.156120000000000
Cl     -4.819799000000000      3.992353000000000      1.500779000000000
Cl     -0.753791000000000     -2.311013000000000      5.640683000000000
Cl     -1.629354000000000     -3.962247000000000     -4.665442000000000
Cl     -6.464509000000000      0.666493000000000      1.230058000000000
