86

C       1.268564000000000     -0.914239000000000      3.833605000000000
C       3.662736000000000     -1.877940000000000     -0.027750000000000
C      -3.000547000000000      2.762244000000000     -1.928836000000000
C       0.619591000000000      0.882208000000000     -3.899041000000000
C       0.437667000000000     -1.975411000000000      3.390536000000000
C       3.813419000000000     -0.977558000000000      1.170857000000000
C      -3.580705000000000      1.517390000000000     -2.314973000000000
C       0.281808000000000      2.232103000000000     -3.544394000000000
C       0.933077000000000     -2.848836000000000      2.327091000000000
C       3.997539000000000      0.367578000000000      1.049792000000000
C       1.123557000000000      2.943543000000000     -2.718797000000000
C      -2.898480000000000      0.592122000000000     -3.155167000000000
C       2.221791000000000     -2.582522000000000      1.792788000000000
C      -1.704045000000000      1.071515000000000     -3.740023000000000
C       3.037530000000000     -1.498464000000000      2.262415000000000
C      -1.154612000000000      2.344476000000000     -3.408447000000000
C       2.554420000000000     -0.668667000000000      3.264225000000000
C      -1.732189000000000      3.174341000000000     -2.406585000000000
C       2.743126000000000      0.760135000000000      3.137218000000000
C      -0.838185000000000      3.913029000000000     -1.503257000000000
C       1.564034000000000      1.421524000000000      3.612150000000000
C      -1.266313000000000      4.158884000000000     -0.165830000000000
C       0.706745000000000      0.386255000000000      4.163949000000000
C      -2.551339000000000      3.678789000000000      0.299292000000000
C      -0.650073000000000      0.562824000000000      4.224909000000000
C      -3.393930000000000      3.011287000000000     -0.548416000000000
C      -1.528201000000000     -0.545349000000000      3.974820000000000
C      -4.178509000000000      1.889777000000000     -0.067743000000000
C      -1.001832000000000     -1.804743000000000      3.559962000000000
C      -4.375609000000000      1.039755000000000     -1.199434000000000
C      -1.869712000000000     -2.610809000000000      2.804934000000000
C      -4.577247000000000     -0.306054000000000     -1.026796000000000
C      -1.365603000000000     -3.556288000000000      1.827013000000000
C      -3.989931000000000     -1.262965000000000     -1.949866000000000
C       0.010140000000000     -3.586508000000000      1.479106000000000
C      -3.061525000000000     -0.853905000000000     -2.938684000000000
C       0.360718000000000     -3.873074000000000      0.089867000000000
C      -1.959482000000000     -1.761825000000000     -3.265651000000000
C       1.639839000000000     -3.399833000000000     -0.441438000000000
C       2.451657000000000     -1.830858000000000     -2.194073000000000
C       1.717135000000000     -1.141309000000000     -3.233847000000000
C      -0.704152000000000     -1.215018000000000     -3.800831000000000
C       2.548568000000000     -2.830080000000000      0.431637000000000
C       3.260569000000000     -1.104295000000000     -1.279130000000000
C       1.780149000000000      0.260387000000000     -3.351471000000000
C      -0.608808000000000      0.165701000000000     -4.059264000000000
C       3.392790000000000      0.273969000000000     -1.404739000000000
C       2.650236000000000      1.001418000000000     -2.444004000000000
C       4.074317000000000      1.072207000000000     -0.289263000000000
C       2.349202000000000      2.361887000000000     -2.234278000000000
C       3.334980000000000      2.362280000000000      0.012065000000000
C       2.604769000000000      2.986863000000000     -0.948000000000000
C       3.416550000000000      1.252714000000000      2.030875000000000
C       0.561402000000000      3.806054000000000     -1.686112000000000
C       2.929032000000000      2.433031000000000      1.382181000000000
C       1.463129000000000      3.789592000000000     -0.580549000000000
C       1.014178000000000      2.547123000000000      2.949473000000000
C      -0.374547000000000      4.077137000000000      0.937245000000000
C      -0.435426000000000      2.749018000000000      3.054685000000000
C      -1.096692000000000      3.521656000000000      2.077381000000000
C      -1.242462000000000      1.769102000000000      3.704299000000000
C      -2.435529000000000      3.248306000000000      1.673298000000000
C      -2.540236000000000      1.420131000000000      3.223864000000000
C      -3.143881000000000      2.103076000000000      2.147352000000000
C      -2.719613000000000     -0.013320000000000      3.396854000000000
C      -4.019962000000000      1.362370000000000      1.237782000000000
C      -3.523947000000000     -0.768598000000000      2.516656000000000
C      -4.223170000000000     -0.077652000000000      1.427966000000000
C      -3.153837000000000     -2.138693000000000      2.366297000000000
C      -4.585447000000000     -0.859144000000000      0.300870000000000
C      -3.497213000000000     -2.874490000000000      1.181071000000000
C      -4.198977000000000     -2.247484000000000      0.171224000000000
C      -2.397540000000000     -3.769296000000000      0.864040000000000
C      -3.841571000000000     -2.488565000000000     -1.221461000000000
C      -2.056548000000000     -4.007602000000000     -0.461410000000000
C      -2.798937000000000     -3.343953000000000     -1.532469000000000
C      -0.689551000000000     -4.093671000000000     -0.838920000000000
C      -1.884603000000000     -2.998356000000000     -2.575760000000000
C       1.730924000000000     -2.987949000000000     -1.824666000000000
C       0.527529000000000     -1.874960000000000     -3.516873000000000
C      -0.600162000000000     -3.570748000000000     -2.197829000000000
C       0.567587000000000     -3.041553000000000     -2.672463000000000
C       1.732067000000000      3.084023000000000      1.792863000000000
C       1.007543000000000      3.828796000000000      0.770657000000000
Cl      5.226437000000000     -2.827698000000000     -0.380144000000000
Cl      5.841892000000000      1.414510000000000     -0.790429000000000
