88

C       4.595063000000000     -1.283331000000000      0.776692000000000
C       2.219026000000000     -2.565560000000000     -2.811561000000000
C      -2.110584000000000      3.228753000000000      0.806568000000000
C      -2.215317000000000      0.607023000000000     -2.830414000000000
C       3.692585000000000     -2.147336000000000      1.456574000000000
C       3.472949000000000     -1.882819000000000     -2.665226000000000
C      -3.097444000000000      2.239472000000000      1.425856000000000
C      -1.969476000000000      1.996791000000000     -2.669110000000000
C       2.922258000000000     -3.108673000000000      0.666475000000000
C       3.604879000000000     -0.591252000000000     -3.141393000000000
C      -0.774425000000000      2.518829000000000     -3.075699000000000
C      -3.343831000000000      1.047493000000000      0.516818000000000
C       3.135634000000000     -3.143446000000000     -0.728477000000000
C      -3.212004000000000      1.253121000000000     -0.827723000000000
C       4.048409000000000     -2.255740000000000     -1.384635000000000
C      -2.734334000000000      2.549221000000000     -1.481094000000000
C       4.752847000000000     -1.322248000000000     -0.641136000000000
C      -1.860131000000000      3.357939000000000     -0.539058000000000
C       4.884529000000000      0.043867000000000     -1.134900000000000
C      -0.570754000000000      3.870675000000000     -0.986320000000000
C       4.788144000000000      0.936336000000000     -0.020633000000000
C       0.405578000000000      4.205999000000000     -0.012290000000000
C       4.740259000000000      0.105699000000000      1.171760000000000
C       0.133750000000000      4.002941000000000      1.378856000000000
C       4.135544000000000      0.565500000000000      2.312199000000000
C      -1.086736000000000      3.511039000000000      1.772809000000000
C       3.376266000000000     -0.331662000000000      3.137898000000000
C      -1.179482000000000      2.570890000000000      2.870444000000000
C       3.146440000000000     -1.673732000000000      2.725060000000000
C      -2.354426000000000      1.821844000000000      2.674910000000000
C       1.985269000000000     -2.284070000000000      3.235791000000000
C      -2.437479000000000      0.539005000000000      3.161786000000000
C       1.284069000000000     -3.311417000000000      2.493946000000000
C      -3.062751000000000     -0.520288000000000      2.396562000000000
C       1.642231000000000     -3.626686000000000      1.170664000000000
C      -3.358999000000000     -0.314112000000000      1.033673000000000
C       0.569772000000000     -3.971799000000000      0.231858000000000
C      -3.182110000000000     -1.421145000000000      0.101951000000000
C       0.771943000000000     -3.765083000000000     -1.186685000000000
C      -0.169262000000000     -2.418152000000000     -3.059495000000000
C      -1.332180000000000     -1.613404000000000     -3.121020000000000
C      -2.977881000000000     -1.169119000000000     -1.249979000000000
C       2.043371000000000     -3.392909000000000     -1.651878000000000
C       1.108628000000000     -1.932538000000000     -3.440694000000000
C      -1.256474000000000     -0.269105000000000     -3.467538000000000
C      -2.991894000000000      0.164751000000000     -1.722046000000000
C       1.218742000000000     -0.559270000000000     -3.907960000000000
C       0.028173000000000      0.284739000000000     -3.895689000000000
C       2.494699000000000      0.066986000000000     -3.787866000000000
C       0.200791000000000      1.681499000000000     -3.750993000000000
C       2.605467000000000      1.459973000000000     -3.474391000000000
C       1.476664000000000      2.246252000000000     -3.461006000000000
C       4.328297000000000      0.398932000000000     -2.352806000000000
C      -0.061979000000000      3.493921000000000     -2.257787000000000
C       3.654766000000000      1.656231000000000     -2.484034000000000
C       1.328725000000000      3.290684000000000     -2.466934000000000
C       4.060998000000000      2.153680000000000     -0.095445000000000
C       1.801202000000000      3.938731000000000     -0.205622000000000
C       3.461665000000000      2.654003000000000      1.145972000000000
C       2.374123000000000      3.553023000000000      1.071813000000000
C       3.523459000000000      1.867585000000000      2.330570000000000
C       1.332159000000000      3.553986000000000      2.045698000000000
C       2.432712000000000      1.797937000000000      3.254576000000000
C       1.271726000000000      2.583539000000000      3.090701000000000
C       2.344592000000000      0.442609000000000      3.756850000000000
C      -0.018302000000000      2.036144000000000      3.502110000000000
C       1.110521000000000     -0.129347000000000      4.135078000000000
C      -0.104468000000000      0.686580000000000      4.039352000000000
C       1.020929000000000     -1.547643000000000      4.003647000000000
C      -1.343231000000000     -0.000695000000000      3.923626000000000
C      -0.251850000000000     -2.197507000000000      3.842351000000000
C      -1.409924000000000     -1.434976000000000      3.799288000000000
C      -0.088159000000000     -3.294864000000000      2.929188000000000
C      -2.465564000000000     -1.764731000000000      2.862669000000000
C      -1.105091000000000     -3.589113000000000      2.027101000000000
C      -2.328208000000000     -2.839275000000000      2.021174000000000
C      -0.774493000000000     -3.945545000000000      0.684143000000000
C      -2.943339000000000     -2.840224000000000      0.641004000000000
C      -0.330878000000000     -3.375000000000000     -2.000089000000000
C      -2.417100000000000     -2.200995000000000     -2.214592000000000
C      -1.866612000000000     -3.543812000000000     -0.164784000000000
C      -1.645010000000000     -3.263762000000000     -1.473838000000000
C       3.468916000000000      2.528774000000000     -1.384284000000000
C       2.292749000000000      3.411824000000000     -1.413499000000000
Cl     -4.174549000000000      3.564811000000000     -2.059135000000000
Cl     -4.710818000000000      3.063122000000000      1.855537000000000
Cl     -3.794923000000000     -2.902400000000000     -3.239434000000000
Cl     -4.564182000000000     -3.754627000000000      0.624641000000000
