92

C      -0.667236000000000      2.934240000000000      3.382039000000000
C       3.335346000000000      1.019038000000000      2.722505000000000
C      -1.349373000000000     -1.265257000000000     -3.384351000000000
C       3.131765000000000     -1.801061000000000     -2.136045000000000
C      -0.985816000000000      1.644185000000000      3.882851000000000
C       2.898045000000000      2.398918000000000      2.700624000000000
C      -1.487264000000000     -2.481883000000000     -2.655729000000000
C       2.331021000000000     -0.918864000000000     -3.065174000000000
C       0.111248000000000      0.728977000000000      4.227398000000000
C       2.997101000000000      3.138275000000000      1.549756000000000
C       2.482477000000000      0.430302000000000     -3.099537000000000
C      -0.350184000000000     -3.164467000000000     -2.130308000000000
C       1.426781000000000      1.193652000000000      4.058727000000000
C       0.914739000000000     -2.682075000000000     -2.542084000000000
C       1.719019000000000      2.497800000000000      3.537253000000000
C       1.054377000000000     -1.507782000000000     -3.333136000000000
C       0.685259000000000      3.352515000000000      3.192366000000000
C      -0.075674000000000     -0.718341000000000     -3.683780000000000
C       0.766027000000000      4.109078000000000      1.956412000000000
C       0.075675000000000      0.718340000000000     -3.683780000000000
C      -0.531367000000000      4.173716000000000      1.373220000000000
C      -1.054377000000000      1.507782000000000     -3.333136000000000
C      -1.448018000000000      3.552806000000000      2.328011000000000
C      -2.331021000000000      0.918864000000000     -3.065175000000000
C      -2.613718000000000      2.979168000000000      1.913258000000000
C      -2.482477000000000     -0.430302000000000     -3.099537000000000
C      -3.027104000000000      1.756444000000000      2.489649000000000
C      -3.484935000000000     -1.172109000000000     -2.233150000000000
C      -2.260608000000000      1.090877000000000      3.479440000000000
C      -2.731642000000000     -2.458140000000000     -1.957549000000000
C      -2.484820000000000     -0.302711000000000      3.598654000000000
C      -2.851598000000000     -3.139858000000000     -0.793229000000000
C      -1.426781000000000     -1.193651000000000      4.058727000000000
C      -1.745587000000000     -3.884353000000000     -0.264571000000000
C      -0.111248000000000     -0.728977000000000      4.227398000000000
C      -0.454184000000000     -3.854492000000000     -0.867153000000000
C       0.985816000000000     -1.644184000000000      3.882852000000000
C       0.725839000000000     -3.986153000000000     -0.020396000000000
C       2.260608000000000     -1.090876000000000      3.479440000000000
C       3.730403000000000     -1.002653000000000      1.482667000000000
C       3.684608000000000     -1.705433000000000      0.258802000000000
C       1.989617000000000     -3.418591000000000     -0.478979000000000
C       2.484820000000000      0.302712000000000      3.598654000000000
C       3.828915000000000      0.401752000000000      1.526933000000000
C       3.646686000000000     -1.021833000000000     -0.936931000000000
C       2.069139000000000     -2.828687000000000     -1.712054000000000
C       3.877754000000000      1.116536000000000      0.279928000000000
C       3.755921000000000      0.412018000000000     -0.928677000000000
C       3.752246000000000      2.645435000000000      0.322258000000000
C       3.484935000000000      1.172109000000000     -2.233150000000000
C       2.851598000000000      3.139858000000000     -0.793229000000000
C       2.731642000000000      2.458140000000000     -1.957549000000000
C       1.900141000000000      3.969490000000000      1.150366000000000
C       1.349373000000000      1.265257000000000     -3.384351000000000
C       1.745587000000000      3.884353000000000     -0.264571000000000
C       1.487264000000000      2.481882000000000     -2.655729000000000
C      -0.725839000000000      3.986153000000000     -0.020396000000000
C      -0.914739000000000      2.682075000000000     -2.542084000000000
C      -1.989617000000000      3.418591000000000     -0.478980000000000
C      -2.069139000000000      2.828687000000000     -1.712054000000000
C      -3.114780000000000      3.108582000000000      0.493688000000000
C      -3.131765000000000      1.801061000000000     -2.136045000000000
C      -3.684608000000000      1.705433000000000      0.258802000000000
C      -3.646686000000000      1.021833000000000     -0.936931000000000
C      -3.730403000000000      1.002654000000000      1.482667000000000
C      -3.755921000000000     -0.412018000000000     -0.928677000000000
C      -3.828915000000000     -0.401752000000000      1.526933000000000
C      -3.877754000000000     -1.116536000000000      0.279928000000000
C      -3.335346000000000     -1.019038000000000      2.722506000000000
C      -3.752246000000000     -2.645435000000000      0.322258000000000
C      -2.898045000000000     -2.398918000000000      2.700624000000000
C      -2.997101000000000     -3.138274000000000      1.549756000000000
C      -1.719019000000000     -2.497800000000000      3.537253000000000
C      -1.900141000000000     -3.969490000000000      1.150367000000000
C      -0.685259000000000     -3.352514000000000      3.192367000000000
C      -0.766027000000000     -4.109078000000000      1.956413000000000
C       0.667236000000000     -2.934239000000000      3.382040000000000
C       0.531367000000000     -4.173716000000000      1.373221000000000
C       3.027104000000000     -1.756444000000000      2.489650000000000
C       3.114781000000000     -3.108582000000000      0.493688000000000
C       1.448018000000000     -3.552805000000000      2.328011000000000
C       2.613718000000000     -2.979167000000000      1.913258000000000
C       0.454184000000000      3.854492000000000     -0.867153000000000
C       0.350184000000000      3.164467000000000     -2.130308000000000
Cl      4.521884000000000     -2.625744000000000     -3.031356000000000
Cl      4.442043000000000     -4.400306000000000      0.377370000000000
Cl      5.069814000000000      1.461094000000000     -3.132783000000000
Cl      5.442441000000000      3.406041000000000      0.251248000000000
Cl     -5.069814000000000     -1.461095000000000     -3.132783000000000
Cl     -4.521884000000000      2.625743000000000     -3.031356000000000
Cl     -4.442043000000000      4.400306000000000      0.377370000000000
Cl     -5.442441000000000     -3.406041000000000      0.251248000000000
