76

C       3.337748000000000     -0.545673000000000     -1.576366000000000
C       3.457169000000000      0.932559000000000     -1.015876000000000
C       3.251654000000000      0.722362000000000      0.564683000000000
C       3.149190000000000     -1.421745000000000     -0.375859000000000
C       3.111273000000000     -0.749302000000000      0.768108000000000
C       2.319271000000000     -2.633396000000000     -0.710091000000000
C       2.086758000000000     -0.886204000000000     -2.319675000000000
C       1.605781000000000     -2.124836000000000     -1.937429000000000
C       1.270068000000000      0.047811000000000     -3.006638000000000
C       2.231310000000000      1.901157000000000     -1.461971000000000
C       1.241933000000000      1.405266000000000     -2.528302000000000
C       1.898301000000000      1.300723000000000      0.852465000000000
C       1.393204000000000      2.032948000000000     -0.201874000000000
C       1.084715000000000      0.897974000000000      1.910074000000000
C       2.469669000000000     -1.311207000000000      1.989555000000000
C       1.553636000000000     -0.251813000000000      2.806200000000000
C       1.300116000000000     -2.941095000000000      0.359375000000000
C       1.459968000000000     -2.380000000000000      1.607261000000000
C       0.021849000000000     -3.523707000000000     -0.020268000000000
C       0.331003000000000     -2.600370000000000     -2.331717000000000
C      -0.459377000000000     -3.406550000000000     -1.405577000000000
C       0.133345000000000     -0.505128000000000     -3.626595000000000
C      -0.305345000000000     -1.849163000000000     -3.335961000000000
C      -1.029369000000000      0.285434000000000     -3.883719000000000
C       0.043961000000000      2.095884000000000     -2.616480000000000
C      -1.078040000000000      1.557293000000000     -3.319424000000000
C       0.084600000000000      2.512493000000000     -0.178418000000000
C      -0.490155000000000      3.013400000000000     -1.496484000000000
C      -0.217507000000000      1.430390000000000      1.996165000000000
C      -0.710706000000000      2.263159000000000      0.958663000000000
C      -1.140571000000000      0.964553000000000      3.132050000000000
C       0.342351000000000     -1.073772000000000      3.172328000000000
C       0.388782000000000     -2.349945000000000      2.537833000000000
C      -0.873054000000000     -0.505439000000000      3.425144000000000
C      -0.939524000000000     -3.698557000000000      0.997056000000000
C      -0.767955000000000     -3.069868000000000      2.279717000000000
C      -2.357261000000000     -3.717071000000000      0.722365000000000
C      -1.841786000000000     -3.504966000000000     -1.655835000000000
C      -2.802548000000000     -3.635272000000000     -0.582330000000000
C      -1.731643000000000     -1.899692000000000     -3.514136000000000
C      -2.196827000000000     -0.572085000000000     -3.847295000000000
C      -2.484884000000000     -2.728583000000000     -2.702353000000000
C      -3.397954000000000     -0.113321000000000     -3.321866000000000
C      -2.313894000000000      2.015826000000000     -2.722726000000000
C      -1.977717000000000      2.765738000000000     -1.558151000000000
C      -3.460877000000000      1.220316000000000     -2.750894000000000
C      -2.168191000000000      2.736163000000000      0.964491000000000
C      -2.753257000000000      2.687608000000000     -0.439183000000000
C      -2.588945000000000      0.937578000000000      2.683391000000000
C      -3.063654000000000      1.760891000000000      1.706168000000000
C      -2.073845000000000     -1.262837000000000      3.236062000000000
C      -2.035220000000000     -2.561464000000000      2.719624000000000
C      -3.041717000000000     -2.992404000000000      1.775090000000000
C      -3.140876000000000     -0.373326000000000      2.843280000000000
C      -4.112580000000000     -2.164602000000000      1.455814000000000
C      -4.170185000000000     -0.823797000000000      2.012549000000000
C      -3.974951000000000     -2.849719000000000     -0.906494000000000
C      -3.777216000000000     -2.286615000000000     -2.221169000000000
C      -4.213459000000000     -0.987871000000000     -2.503445000000000
C      -4.601167000000000     -2.100451000000000      0.093477000000000
C      -4.308192000000000      1.169482000000000     -1.592748000000000
C      -3.940784000000000      1.890891000000000     -0.454240000000000
C      -4.134348000000000      1.325941000000000      0.861061000000000
C      -4.692503000000000      0.054451000000000      1.004287000000000
C      -4.805017000000000     -0.189779000000000     -1.447508000000000
C      -4.993478000000000     -0.732604000000000     -0.180946000000000
Cl      4.724826000000000     -1.112743000000000     -2.637569000000000
Cl      5.053882000000000      1.623340000000000     -1.383025000000000
Cl      4.490195000000000      1.482171000000000      1.652088000000000
Cl      2.340355000000000      0.452604000000000      4.287182000000000
Cl     -0.923431000000000      2.068723000000000      4.589923000000000
Cl     -2.239756000000000      4.430085000000000      1.691229000000000
Cl     -0.219215000000000      4.821810000000000     -1.726394000000000
Cl      2.839164000000000      3.537270000000000     -2.004345000000000
Cl      3.752666000000000     -2.081719000000000      3.045109000000000
Cl      3.333875000000000     -4.140624000000000     -1.049832000000000
