62

C       0.203605644117456     -0.057962045246556     -3.783000954638149
C       0.262972312672566      1.360224134414042     -3.264822842627048
C      -1.026783375228702      1.788828075727453     -2.840918196486221
C      -1.161082066301250     -0.480256962312746     -3.299752263312834
C      -1.910552478292000      0.646293610072446     -2.865401693762704
C      -1.384753854887952     -1.705171967594093     -2.715123836471721
C      -0.294522689800272     -2.582677495749274     -2.344994776396015
C       1.267203512473112     -0.892054882666287     -3.153693179821166
C       1.007296447036066     -2.182880265210271     -2.570715742934672
C       2.374559312638553     -0.338749719855112     -2.513128148162481
C       1.375957376095484      1.883175181711408     -2.647781871045379
C       2.489049462292446      1.029889555510662     -2.260408761870956
C       1.232974573277551      2.858437165792824     -1.601550933492435
C      -1.176970789639705      2.743104634995190     -1.841180336606947
C      -0.018323653458221      3.296098524594400     -1.207320574733715
C      -2.200811634370155      2.611536731234998     -0.846032848163591
C      -2.900111832132425      0.524238320113396     -1.894133562300397
C      -3.049120574308747      1.516744115264958     -0.872758524444456
C      -2.399433863490148     -1.845820657533121     -1.701991729008190
C      -3.151461947958078     -0.755137871773420     -1.302798971620411
C      -0.631111364765030     -3.250326544491428     -1.104656604280182
C      -1.940031370459346     -2.787062909279125     -0.720030871712731
C       0.316349070389781     -3.511368528609541     -0.142377109144798
C       2.011550521991507     -2.418687132701541     -1.563132460264871
C       2.844421351752717     -1.303296914311524     -1.509139970956754
C       1.791067534375621     -3.314446184091682     -0.391208397812405
C       3.399708963762767     -0.839722874416327     -0.313506520954278
C       3.014720936536942      1.472237361378531     -1.023205360169657
C       2.242609422680897      2.615834268604913     -0.602656253480482
C       3.464026033415447      0.551115925897716     -0.063635968608704
C       1.950344686133173      2.811120092765254      0.733909176336291
C      -0.325443168222225      3.506506397544971      0.181988301564878
C      -1.679739031390836      3.084385909514479      0.412792225981528
C       0.647560545928811      3.267449839130896      1.137907177000900
C      -2.016288007832086      2.444838138691353      1.591866250688003
C      -3.411874177594648      0.858313876039575      0.358837967258005
C      -3.474423657620879     -0.549788796930211      0.085032152758561
C      -2.901556543985683      1.306957021346473      1.564527113860185
C      -2.253740781994876     -2.594548584304411      0.613841096923660
C      -3.030979390076201     -1.457997040117149      1.031661163417435
C       0.004017511486438     -3.279817663783271      1.225019297094711
C      -1.258384812759065     -2.841532004484189      1.612669720585896
C       2.206958084796983     -2.628394059031599      0.889886870429278
C       3.042225536210325     -1.535828101342584      0.913908676048435
C       1.175448891687154     -2.729819193831943      1.866201269870352
C       3.146239104196876      0.762110413357771      1.328126715307318
C       2.411812175944322      1.864609281804074      1.720565177733234
C       2.880447038603649     -0.523258193413696      1.921581514453891
C       0.299826764230179      2.605434839063876      2.365601361135550
C      -1.008210257669450      2.200307928019824      2.588987253014598
C       1.391001036615625      1.742918071914518      2.726917708156816
C      -2.442077907377125      0.364277791411847      2.547174170104855
C      -2.509558957311812     -0.992645287700745      2.286043048189707
C      -1.406255093664735     -1.852376043022884      2.636934731095181
C      -1.272368960593221      0.917451575465034      3.184104369511651
C       1.020207689422097     -1.765812358685308      2.855480925507405
C       1.897528733360885     -0.635095479792009      2.888210561032101
C       1.134820275567311      0.510549147500672      3.304223821408861
C      -0.284155883129065     -1.321888820580015      3.251459440074033
C      -0.220464753698920      0.090358878188889      3.532802994244837
Cl      0.364227265198915     -0.146569124498435     -5.602944505633062
Cl      2.677518705973147     -4.893161716156050     -0.659222526147693
