76

C       3.506405000000000     -1.938299000000000      0.540711000000000
C       3.716921000000000     -0.789161000000000      1.292765000000000
C       2.883575000000000     -0.520730000000000      2.448771000000000
C       1.837363000000000     -1.383611000000000      2.778653000000000
C       2.676529000000000      0.895195000000000      2.530771000000000
C       3.374370000000000      1.531480000000000      1.434283000000000
C      -2.786004000000000     -0.653275000000000      2.714231000000000
C       3.981094000000000      0.483203000000000      0.637354000000000
C       2.808986000000000      2.651357000000000      0.818234000000000
C      -3.941807000000000     -0.774083000000000      1.619519000000000
C       1.600633000000000      3.237448000000000      1.324137000000000
C       0.928212000000000      2.580786000000000      2.325378000000000
C       1.428718000000000      1.372213000000000      2.917994000000000
C      -0.655282000000000      2.753400000000000     -1.969227000000000
C      -0.518919000000000      2.457796000000000      2.267215000000000
C      -1.466699000000000      3.642284000000000     -1.073817000000000
C      -2.777484000000000      2.916356000000000     -0.566763000000000
C      -0.621675000000000     -1.621393000000000     -2.855110000000000
C       0.327796000000000     -0.524378000000000     -3.189441000000000
C       0.123238000000000      0.845796000000000     -3.054270000000000
C      -4.113262000000000      0.625042000000000      0.937637000000000
C      -2.924835000000000      1.384360000000000      1.461543000000000
C      -2.179746000000000      0.704223000000000      2.433375000000000
C      -0.923985000000000      1.203360000000000      2.805816000000000
C       0.304265000000000      0.475293000000000      3.197068000000000
C       0.509058000000000     -0.900118000000000      3.151596000000000
C      -0.471983000000000     -1.941944000000000      2.726653000000000
C      -1.819551000000000     -1.803928000000000      2.414753000000000
C      -2.352854000000000     -2.559569000000000      1.316358000000000
C      -3.402374000000000     -1.814172000000000      0.685072000000000
C      -3.440510000000000     -1.734772000000000     -0.678227000000000
C      -2.430484000000000     -2.406023000000000     -1.442681000000000
C      -4.025271000000000     -0.601624000000000     -1.473988000000000
C      -1.609420000000000     -3.365140000000000     -0.854840000000000
C      -1.568873000000000     -3.443510000000000      0.581691000000000
C      -0.222424000000000     -3.698113000000000      0.978135000000000
C      -2.911130000000000     -0.343234000000000     -2.572950000000000
C       0.299675000000000     -2.975235000000000      2.050104000000000
C       1.693386000000000     -2.619980000000000      2.059017000000000
C      -1.946180000000000     -1.520465000000000     -2.461041000000000
C       2.507701000000000     -2.898754000000000      0.953840000000000
C       1.908636000000000     -3.473570000000000     -0.234166000000000
C       0.581059000000000     -3.870036000000000     -0.220574000000000
C      -0.286227000000000     -3.569753000000000     -1.347884000000000
C      -1.066015000000000      1.572058000000000     -2.541862000000000
C      -2.357914000000000      1.010124000000000     -2.171151000000000
C       0.180647000000000     -2.725973000000000     -2.355181000000000
C      -3.119893000000000      1.608479000000000     -1.237776000000000
C       1.571841000000000     -2.363051000000000     -2.397161000000000
C      -4.207798000000000      0.720639000000000     -0.660885000000000
C       1.675578000000000     -1.047207000000000     -2.969779000000000
C       2.742286000000000     -0.227353000000000     -2.604636000000000
C       2.531756000000000      1.185238000000000     -2.511478000000000
C       1.267051000000000      1.697045000000000     -2.764269000000000
C       0.789696000000000      2.837922000000000     -2.028278000000000
C      -2.426542000000000      2.518141000000000      0.843878000000000
C      -1.233614000000000      3.076787000000000      1.260103000000000
C      -0.669967000000000      4.048510000000000      0.252133000000000
C       0.903671000000000      4.043096000000000      0.209336000000000
C       1.532421000000000      3.366580000000000     -1.002767000000000
C       2.768868000000000      2.732531000000000     -0.629934000000000
C       3.297409000000000      1.692979000000000     -1.393248000000000
C       3.944438000000000      0.562730000000000     -0.755180000000000
C       3.641791000000000     -0.625697000000000     -1.536677000000000
C       3.467062000000000     -1.853778000000000     -0.911683000000000
C       2.444940000000000     -2.764798000000000     -1.379472000000000
H      -3.175404000000000     -0.717428000000000      3.734551000000000
H      -4.879081000000000     -1.098307000000000      2.077252000000000
H      -5.027432000000000      1.083736000000000      1.325682000000000
H      -5.194731000000000      1.139955000000000     -0.883101000000000
H      -4.970057000000000     -0.896325000000000     -1.936649000000000
H      -3.328971000000000     -0.292767000000000     -3.584297000000000
H      -3.631282000000000      3.603338000000000     -0.618291000000000
H      -1.730666000000000      4.552046000000000     -1.622073000000000
H      -0.976937000000000      5.064037000000000      0.518907000000000
H       1.244445000000000      5.083350000000000      0.257647000000000
