68

C      -3.077887000000000      2.323426000000000      0.758327000000000
C      -3.432654000000000      1.173938000000000      1.451322000000000
C      -2.613186000000000      0.715324000000000      2.559587000000000
C      -1.445239000000000      1.392798000000000      2.899876000000000
C      -2.613186000000000     -0.715324000000000      2.559587000000000
C      -3.432654000000000     -1.173938000000000      1.451322000000000
C       2.978844000000000     -0.000000000000000      2.604416000000000
C      -3.904589000000000      0.000000000000000      0.737279000000000
C      -3.077887000000000     -2.323425000000000      0.758327000000000
C       3.859478000000000     -0.000000000000000      1.343760000000000
C      -1.938022000000000     -3.099751000000000      1.188359000000000
C      -1.143667000000000     -2.639972000000000      2.248353000000000
C      -1.445239000000000     -1.392798000000000      2.899876000000000
C       0.228883000000000     -2.787744000000000     -2.241392000000000
C       0.280182000000000     -2.795328000000000      2.212035000000000
C       0.861566000000000     -3.486561000000000     -1.180484000000000
C       2.145074000000000     -3.097956000000000     -0.755951000000000
C       0.812325000000000      1.626177000000000     -2.833643000000000
C      -0.289759000000000      0.699947000000000     -3.200779000000000
C      -0.289759000000000     -0.699947000000000     -3.200779000000000
C       3.756589000000000     -1.222232000000000      0.651068000000000
C       2.834180000000000     -2.075524000000000      1.372725000000000
C       2.203132000000000     -1.311667000000000      2.430613000000000
C       0.908972000000000     -1.621486000000000      2.803630000000000
C      -0.195523000000000     -0.696945000000000      3.206793000000000
C      -0.195523000000000      0.696945000000000      3.206793000000000
C       0.908972000000000      1.621486000000000      2.803630000000000
C       2.203132000000000      1.311667000000000      2.430613000000000
C       2.834180000000000      2.075524000000000      1.372725000000000
C       3.756589000000000      1.222231000000000      0.651068000000000
C       3.747574000000000      1.258730000000000     -0.757709000000000
C       2.825063000000000      2.067387000000000     -1.434393000000000
C       3.943511000000000     -0.000000000000000     -1.556180000000000
C       2.145074000000000      3.097956000000000     -0.755951000000000
C       2.162061000000000      3.089577000000000      0.702662000000000
C       0.874143000000000      3.493020000000000      1.157479000000000
C       2.747479000000000     -0.000000000000000     -2.512120000000000
C       0.280182000000000      2.795328000000000      2.212035000000000
C      -1.143666000000000      2.639972000000000      2.248353000000000
C       2.146656000000000      1.277667000000000     -2.494707000000000
C      -1.938022000000000      3.099752000000000      1.188359000000000
C      -1.293838000000000      3.643079000000000      0.012983000000000
C       0.073474000000000      3.835013000000000     -0.002886000000000
C       0.861567000000000      3.486560000000000     -1.180484000000000
C       0.812325000000000     -1.626178000000000     -2.833643000000000
C       2.146656000000000     -1.277667000000000     -2.494707000000000
C       0.228883000000000      2.787744000000000     -2.241392000000000
C       2.825063000000000     -2.067388000000000     -1.434393000000000
C      -1.205114000000000      2.639774000000000     -2.231754000000000
C       3.747574000000000     -1.258730000000000     -0.757709000000000
C      -1.532962000000000      1.396349000000000     -2.877696000000000
C      -2.691228000000000      0.717877000000000     -2.506244000000000
C      -2.691228000000000     -0.717877000000000     -2.506244000000000
C      -1.532962000000000     -1.396349000000000     -2.877696000000000
C      -1.205114000000000     -2.639774000000000     -2.231753000000000
C       2.162061000000000     -3.089577000000000      0.702662000000000
C       0.874143000000000     -3.493020000000000      1.157479000000000
C       0.073474000000000     -3.835013000000000     -0.002886000000000
C      -1.293838000000000     -3.643079000000000      0.012983000000000
C      -1.971136000000000     -3.095810000000000     -1.155694000000000
C      -3.098596000000000     -2.324153000000000     -0.698205000000000
C      -3.481476000000000     -1.174724000000000     -1.384395000000000
C      -3.929552000000000      0.000000000000000     -0.656833000000000
C      -3.481476000000000      1.174725000000000     -1.384395000000000
C      -3.098596000000000      2.324153000000000     -0.698205000000000
C      -1.971136000000000      3.095810000000000     -1.155694000000000
H       3.538021000000000     -0.000000000000000      3.548378000000000
H       4.895929000000000     -0.000000000000000     -2.108881000000000
