72

C      -3.544791000000000     -2.231774000000000     -0.620364000000000
C      -3.863919000000000     -0.907390000000000     -1.415982000000000
C      -2.788239000000000     -0.482468000000000     -2.423606000000000
C      -1.709740000000000     -1.251595000000000     -2.783342000000000
C      -2.643893000000000      0.925503000000000     -2.416451000000000
C      -3.377273000000000      1.467591000000000     -1.287690000000000
C       2.849925000000000     -0.265740000000000     -2.763278000000000
C      -3.938175000000000      0.363146000000000     -0.558666000000000
C      -2.900306000000000      2.601892000000000     -0.633627000000000
C       3.985033000000000     -0.352266000000000     -1.648697000000000
C      -1.715963000000000      3.276627000000000     -1.128217000000000
C      -1.012303000000000      2.737674000000000     -2.209208000000000
C      -1.444456000000000      1.510148000000000     -2.830386000000000
C       0.574289000000000      2.789328000000000      2.171083000000000
C       0.421823000000000      2.762565000000000     -2.237708000000000
C       1.199994000000000      3.431556000000000      1.102391000000000
C       2.430676000000000      2.896192000000000      0.619575000000000
C       0.843130000000000     -1.643969000000000      2.802515000000000
C      -0.173274000000000     -0.633888000000000      3.225397000000000
C      -0.055384000000000      0.755268000000000      3.201962000000000
C       3.804764000000000      0.900176000000000     -0.822521000000000
C       2.927587000000000      1.800302000000000     -1.501201000000000
C       2.193921000000000      1.098562000000000     -2.524587000000000
C       0.913727000000000      1.525752000000000     -2.837389000000000
C      -0.287805000000000      0.712662000000000     -3.178528000000000
C      -0.420070000000000     -0.679509000000000     -3.141416000000000
C       0.618422000000000     -1.681381000000000     -2.776168000000000
C       1.958266000000000     -1.481888000000000     -2.485385000000000
C       2.567923000000000     -2.281070000000000     -1.448679000000000
C       3.591370000000000     -1.534680000000000     -0.793618000000000
C       3.644628000000000     -1.523362000000000      0.583762000000000
C       2.679079000000000     -2.260845000000000      1.329385000000000
C       4.100376000000000     -0.325222000000000      1.384713000000000
C       1.903439000000000     -3.232293000000000      0.696300000000000
C       1.847011000000000     -3.242676000000000     -0.743020000000000
C       0.510264000000000     -3.551693000000000     -1.131514000000000
C       3.054255000000000     -0.219738000000000      2.581471000000000
C      -0.078716000000000     -2.800353000000000     -2.151490000000000
C      -1.486340000000000     -2.543264000000000     -2.125733000000000
C       2.152739000000000     -1.445444000000000      2.398661000000000
C      -2.260995000000000     -2.940139000000000     -1.056452000000000
C      -1.606346000000000     -3.500076000000000      0.091134000000000
C      -0.258097000000000     -3.833443000000000      0.056327000000000
C       0.601361000000000     -3.533408000000000      1.190606000000000
C       1.112682000000000      1.564530000000000      2.757462000000000
C       2.370265000000000      1.135411000000000      2.362644000000000
C       0.101394000000000     -2.768481000000000      2.241851000000000
C       3.026248000000000      1.821916000000000      1.277607000000000
C      -1.304094000000000     -2.487873000000000      2.311615000000000
C       3.854760000000000      0.911680000000000      0.551994000000000
C      -1.481402000000000     -1.222706000000000      2.956165000000000
C      -2.593767000000000     -0.454366000000000      2.613395000000000
C      -2.472697000000000      0.969648000000000      2.595412000000000
C      -1.248399000000000      1.551011000000000      2.913547000000000
C      -0.857450000000000      2.765260000000000      2.244270000000000
C       2.381010000000000      2.886853000000000     -0.819355000000000
C       1.120723000000000      3.417167000000000     -1.223221000000000
C       0.406362000000000      3.853975000000000     -0.036707000000000
C      -0.977406000000000      3.778699000000000      0.011204000000000
C      -1.636577000000000      3.292145000000000      1.206828000000000
C      -2.851434000000000      2.614030000000000      0.808074000000000
C      -3.280902000000000      1.490781000000000      1.509395000000000
C      -3.871004000000000      0.366808000000000      0.815769000000000
C      -3.475597000000000     -0.859684000000000      1.539955000000000
C      -3.251950000000000     -2.033134000000000      0.871201000000000
C      -2.163634000000000     -2.871659000000000      1.269902000000000
H       3.265625000000000     -0.319960000000000     -3.773288000000000
H       4.983109000000000     -0.445590000000000     -2.084741000000000
H       5.129407000000000     -0.409322000000000      1.743904000000000
H       3.545934000000000     -0.247028000000000      3.557866000000000
H      -4.817470000000000     -1.055408000000000     -1.932380000000000
H      -4.396903000000000     -2.906979000000000     -0.747547000000000
