72

C       3.181316000000000     -2.259749000000000      0.408353000000000
C       3.567776000000000     -1.175022000000000      1.149056000000000
C       3.022311000000000     -0.872637000000000      2.550544000000000
C       1.732055000000000     -1.681406000000000      2.968961000000000
C       2.781619000000000      0.618643000000000      2.440275000000000
C       3.482701000000000      1.155658000000000      1.308142000000000
C      -2.839186000000000     -0.240794000000000      2.778602000000000
C       3.923933000000000      0.045542000000000      0.487587000000000
C       3.086651000000000      2.353035000000000      0.710608000000000
C      -3.984722000000000     -0.184260000000000      1.671047000000000
C       1.968851000000000      3.067828000000000      1.254706000000000
C       1.244445000000000      2.487319000000000      2.308109000000000
C       1.622897000000000      1.222020000000000      2.864945000000000
C      -0.401554000000000      2.938419000000000     -2.025252000000000
C      -0.185355000000000      2.601917000000000      2.357381000000000
C      -0.964749000000000      3.551494000000000     -0.904946000000000
C      -2.222912000000000      3.072306000000000     -0.430525000000000
C      -0.966320000000000     -1.422257000000000     -2.884769000000000
C       0.108564000000000     -0.458516000000000     -3.271919000000000
C       0.080470000000000      0.933071000000000     -3.180751000000000
C      -3.721719000000000      1.097883000000000      0.914287000000000
C      -2.770264000000000      1.887371000000000      1.629190000000000
C      -2.080371000000000      1.075689000000000      2.596762000000000
C      -0.759453000000000      1.377459000000000      2.896746000000000
C       0.376175000000000      0.464419000000000      3.198345000000000
C       0.396510000000000     -0.898138000000000      3.118340000000000
C      -0.699983000000000     -1.787748000000000      2.681770000000000
C      -2.031198000000000     -1.489933000000000      2.417329000000000
C      -2.694272000000000     -2.183621000000000      1.343012000000000
C      -3.676982000000000     -1.337763000000000      0.744077000000000
C      -3.738191000000000     -1.243383000000000     -0.628079000000000
C      -2.827008000000000     -1.998785000000000     -1.427265000000000
C      -4.119869000000000      0.024966000000000     -1.355668000000000
C      -2.113027000000000     -3.053495000000000     -0.859442000000000
C      -2.043489000000000     -3.145291000000000      0.574008000000000
C      -0.725689000000000     -3.559904000000000      0.926535000000000
C      -3.079780000000000      0.128199000000000     -2.558683000000000
C      -0.079832000000000     -2.906559000000000      1.981620000000000
C       1.336868000000000     -2.760704000000000      1.977627000000000
C      -2.258104000000000     -1.161431000000000     -2.454109000000000
C       2.062149000000000     -3.109239000000000      0.858872000000000
C       1.374560000000000     -3.583870000000000     -0.318314000000000
C       0.010203000000000     -3.830906000000000     -0.284580000000000
C      -0.836464000000000     -3.412697000000000     -1.386504000000000
C      -1.028719000000000      1.790270000000000     -2.668624000000000
C      -2.305690000000000      1.421180000000000     -2.275201000000000
C      -0.296033000000000     -2.621526000000000     -2.400287000000000
C      -2.901466000000000      2.083813000000000     -1.141495000000000
C       1.125193000000000     -2.434460000000000     -2.473640000000000
C      -3.783804000000000      1.193112000000000     -0.457368000000000
C       1.380250000000000     -1.142288000000000     -3.061015000000000
C       2.549367000000000     -0.465197000000000     -2.726159000000000
C       2.521991000000000      0.963473000000000     -2.632837000000000
C       1.326082000000000      1.634600000000000     -2.880247000000000
C       1.024587000000000      2.826361000000000     -2.129085000000000
C      -2.153948000000000      2.970202000000000      1.001937000000000
C      -0.852522000000000      3.379433000000000      1.412016000000000
C      -0.127218000000000      3.844624000000000      0.240190000000000
C       1.245784000000000      3.684860000000000      0.161312000000000
C       1.852314000000000      3.235332000000000     -1.075094000000000
C       3.020712000000000      2.451191000000000     -0.739457000000000
C       3.371161000000000      1.362333000000000     -1.524366000000000
C       3.882118000000000      0.149746000000000     -0.909970000000000
C       3.418933000000000     -0.974756000000000     -1.678797000000000
C       3.101975000000000     -2.166639000000000     -1.032983000000000
C       1.961767000000000     -2.937917000000000     -1.472092000000000
H      -3.251268000000000     -0.319618000000000      3.788372000000000
H      -4.984633000000000     -0.233422000000000      2.109785000000000
H      -5.155296000000000      0.029711000000000     -1.706222000000000
H      -3.581847000000000      0.186556000000000     -3.528321000000000
H       3.792107000000000     -1.075399000000000      3.301859000000000
H       1.946562000000000     -2.145101000000000      3.937898000000000
