74

C      -3.318265000000000     -2.573842000000000     -0.621173000000000
C      -3.779211000000000     -1.292448000000000     -1.420424000000000
C      -2.757064000000000     -0.758213000000000     -2.431902000000000
C      -1.605067000000000     -1.411134000000000     -2.791387000000000
C      -2.759646000000000      0.658021000000000     -2.426178000000000
C      -3.542037000000000      1.121165000000000     -1.296350000000000
C       2.827606000000000      0.030497000000000     -2.760527000000000
C      -3.986154000000000     -0.034968000000000     -0.565698000000000
C      -3.185881000000000      2.300093000000000     -0.644145000000000
C       3.997957000000000      0.069909000000000     -1.678903000000000
C      -2.076190000000000      3.090930000000000     -1.137740000000000
C      -1.321745000000000      2.628167000000000     -2.220331000000000
C      -1.627954000000000      1.364280000000000     -2.843105000000000
C       0.243871000000000      2.846501000000000      2.172816000000000
C       0.103332000000000      2.798033000000000     -2.248169000000000
C       0.805221000000000      3.541235000000000      1.099998000000000
C       2.080037000000000      3.121176000000000      0.619657000000000
C       0.962399000000000     -1.521117000000000      2.797033000000000
C      -0.151512000000000     -0.625913000000000      3.233679000000000
C      -0.179487000000000      0.766132000000000      3.212114000000000
C       3.617431000000000      1.231519000000000     -0.809718000000000
C       2.676472000000000      2.069398000000000     -1.491924000000000
C       2.032423000000000      1.318733000000000     -2.531540000000000
C       0.717340000000000      1.621167000000000     -2.851111000000000
C      -0.395273000000000      0.690092000000000     -3.192784000000000
C      -0.380654000000000     -0.706778000000000     -3.144877000000000
C       0.753129000000000     -1.589524000000000     -2.757498000000000
C       2.070485000000000     -1.245474000000000     -2.435361000000000
C       2.770807000000000     -1.980886000000000     -1.446040000000000
C       4.000085000000000     -1.288528000000000     -0.914594000000000
C       4.058894000000000     -1.265066000000000      0.706047000000000
C       2.874910000000000     -1.944208000000000      1.345993000000000
C       4.106748000000000      0.115512000000000      1.429061000000000
C       2.211043000000000     -2.983475000000000      0.722937000000000
C       2.157290000000000     -3.002247000000000     -0.749585000000000
C       0.862340000000000     -3.437814000000000     -1.124315000000000
C       3.017186000000000      0.106922000000000      2.592465000000000
C       0.187804000000000     -2.765534000000000     -2.151927000000000
C      -1.244257000000000     -2.667873000000000     -2.127169000000000
C       2.249090000000000     -1.182653000000000      2.364899000000000
C      -1.965522000000000     -3.139191000000000     -1.056947000000000
C      -1.248529000000000     -3.617222000000000      0.096880000000000
C       0.124963000000000     -3.795206000000000      0.064501000000000
C       0.946815000000000     -3.405969000000000      1.200170000000000
C       0.901672000000000      1.689662000000000      2.770287000000000
C       2.195658000000000      1.382101000000000      2.375577000000000
C       0.356028000000000     -2.708379000000000      2.257391000000000
C       2.767265000000000      2.105876000000000      1.275470000000000
C      -1.076804000000000     -2.586221000000000      2.322279000000000
C       3.663375000000000      1.250505000000000      0.555407000000000
C      -1.391996000000000     -1.350038000000000      2.966717000000000
C      -2.576310000000000     -0.702186000000000      2.615375000000000
C      -2.603379000000000      0.728019000000000      2.593031000000000
C      -1.448481000000000      1.434571000000000      2.915387000000000
C      -1.179250000000000      2.678298000000000      2.241481000000000
C       2.034646000000000      3.105288000000000     -0.820312000000000
C       0.732719000000000      3.515704000000000     -1.228929000000000
C      -0.023600000000000      3.879314000000000     -0.043057000000000
C      -1.393198000000000      3.665971000000000      0.002506000000000
C      -2.003368000000000      3.118968000000000      1.198434000000000
C      -3.141120000000000      2.319268000000000      0.798374000000000
C      -3.455215000000000      1.159623000000000      1.501236000000000
C      -3.922033000000000     -0.021599000000000      0.808355000000000
C      -3.402913000000000     -1.198426000000000      1.537631000000000
C      -3.051480000000000     -2.342722000000000      0.871087000000000
C      -1.880925000000000     -3.057651000000000      1.276463000000000
H       3.221991000000000     -0.005196000000000     -3.780780000000000
H       4.962517000000000      0.239382000000000     -2.162740000000000
H       5.103087000000000      0.299273000000000      1.837242000000000
H       3.483118000000000      0.111272000000000      3.582694000000000
H      -4.712680000000000     -1.543687000000000     -1.933405000000000
H      -4.092109000000000     -3.337628000000000     -0.748140000000000
H       4.878383000000000     -1.860212000000000     -1.221136000000000
H       4.960566000000000     -1.824090000000000      0.964146000000000
