65

C      -1.308778782107891      0.010088954771406      3.585569581472971
C      -0.392666218336759     -1.151287199955496      3.235403817213713
C       0.878561854969688     -0.730872578427268      3.124046340785517
C       0.886958805031301      0.728544797641517      3.150570548276757
C      -0.401058762658718      1.167909103887675      3.277083598141248
C       2.285458374591262     -2.562616479096459      0.565469318640656
C       3.138121769596181     -1.398565615793392      0.564295214235607
C       2.927590469142920     -0.711589083770224      1.783993527689516
C       2.068780592783263     -1.529040667681279      2.714447704058453
C       1.557403148901424     -2.609734890551037      1.793809756445502
C       3.140148977989226      1.392340276783995      0.550301832805647
C       2.297965071954651      2.553647532542004      0.551670241555700
C       1.549661401487052      2.593324151614389      1.780686459864739
C       1.935028443882373      1.417840527042054      2.511971517775854
C       2.909486320057848      0.671592112969934      1.784292432341493
C      -0.346204664043418      3.427950838708823      0.573115705556956
C      -1.705982512561053      2.962300043874045      0.564646220741353
C      -1.956556761880941      2.279186465031515      1.800658967498455
C      -0.812172758718741      2.490131759299198      2.752403849684393
C       0.240948867103255      3.028036273271746      1.805755821061337
C      -3.290010068326394      0.712037270433945      0.571747743641170
C      -3.279586012230485     -0.709640873131774      0.574781599099108
C      -2.708973609953948     -1.161956147233418      1.816380300378879
C      -2.624544471222830      0.008241506643963      2.772294557387965
C      -2.728678523332347      1.169699587782771      1.812947380318041
C      -1.695215501304618     -2.951133420732110      0.567559534621810
C      -0.341415819070731     -3.407331296865192      0.570124154003586
C       0.262432438665880     -3.012474401954745      1.809682288756538
C      -0.797031973529525     -2.492026435347694      2.750928610826319
C      -1.947128870028857     -2.278203278925465      1.806453659588340
C      -0.230837123862291     -2.984015774042081     -1.859684985756950
C       0.750829193159929     -2.271716086927890     -2.633358719897597
C       1.960543105583935     -2.269402824478838     -1.858968716432666
C       1.718381119598118     -2.965969941262600     -0.626102091327615
C       0.363230355806436     -3.404108703522868     -0.619343474739853
C       2.777834933626379     -1.153512544415315     -1.852362537325372
C       2.408316809891704      0.007090775886264     -2.629501489597969
C       2.780997698459792      1.162407290575239     -1.864640001347200
C       3.369160112699707      0.716659296566975     -0.627921279675075
C       3.370258635229970     -0.716435946864070     -0.628018362797109
C       1.967841758401371      2.282928928286716     -1.865817207857400
C       0.754239291445420      2.286290329375387     -2.629589460578028
C      -0.230793124165483      2.999709305982067     -1.853914180170877
C       0.369164437472436      3.428697564517984     -0.625109262227464
C       1.726881046093308      2.982162976335584     -0.630897965890281
C      -1.544564350696495      2.566240943149178     -1.859981045337520
C      -1.922837502702020      1.415448241632306     -2.633129006332336
C      -2.896598885770779      0.695414455862737     -1.852749219336554
C      -3.101493267099301      1.391814162974345     -0.615467625739773
C      -2.273296014469737      2.553095195960968     -0.622655149681110
C      -2.892566468011454     -0.685752079880525     -1.850778049179320
C      -1.924160097469651     -1.403679227753452     -2.633945513814959
C      -1.543366106638834     -2.554979988132487     -1.859723503090605
C      -2.269568079873407     -2.545598461704810     -0.621906939556492
C      -3.095960863575495     -1.386434132087814     -0.613317404017568
C      -0.977791294919628     -0.713131596945881     -3.372024805986379
C      -0.978312750697404      0.726122705712398     -3.372784469101933
C       0.391672433570426      1.172216972860757     -3.365379233314915
C       1.237561552553825      0.006943122884344     -3.365062252898420
C       0.389662268739450     -1.158167469648210     -3.371288914769609
Cl     -1.625217556289017     -0.003574948124834      5.372391952239807
Cl     -4.088352391617793      0.006230154912394      3.818997825906068
Cl      2.943638465246186     -2.161712208082216      4.163634242266086
Cl     -1.166128453912667     -3.579875945122515      4.136698927591258
Cl     -1.231827429111052      3.571410650429681      4.147865625826058
