65

C      -1.312081402359260     -0.003013972110720      3.555176112275419
C      -0.387049886108220     -1.160828842945808      3.256715385582518
C       0.926305319703582     -0.712443200796201      3.202990538393375
C       0.909129318108483      0.706610757994634      3.175348529264765
C      -0.385509114498319      1.142861387640653      3.248142904416178
C       2.297207826424609     -2.552563254819482      0.569862381795951
C       3.135109615776901     -1.383204121628508      0.558422317081208
C       2.926952920913909     -0.677536548386184      1.790046504610611
C       2.084898948793029     -1.507431402727287      2.727977092657042
C       1.578836663157306     -2.579186652733731      1.796946448136164
C       3.132822741918956      1.382119882985410      0.558502645164383
C       2.280837987014957      2.531693655879121      0.567626057701843
C       1.553560162690415      2.567060028302111      1.801089857015737
C       2.087801185842679      1.502090433896300      2.729376351147797
C       2.935918711892061      0.679745642951669      1.792790352717844
C      -0.342062608299872      3.370764816748196      0.576165588834842
C      -1.700827065470831      2.935658756035256      0.568574255445740
C      -1.962752273300984      2.266166101124031      1.807802004219582
C      -0.812033409692393      2.472771404274411      2.758562681057441
C       0.260932701139332      2.974272224557707      1.813672609810433
C      -3.320071772902768      0.713126669053199      0.564536935323516
C      -3.338022067107473     -0.715509791777556      0.566171324550731
C      -2.783054375845779     -1.160123539744361      1.800753583944605
C      -2.653337165169010     -0.002900271368611      2.760379708290579
C      -2.746338171978588      1.162870880638203      1.803345238836861
C      -1.718354515232215     -2.963600301940271      0.556858408219090
C      -0.350879506818860     -3.400370241037687      0.560491314716156
C       0.262539393220818     -2.975084400113773      1.789872378048463
C      -0.757603493777021     -2.292820770692290      2.552164919254991
C      -1.978623252904883     -2.273964507666232      1.795546859218552
C      -0.240365660714896     -2.993961570831436     -1.863852978940906
C       0.742483240619610     -2.284810907060180     -2.629842596321051
C       1.956641103430311     -2.279499525241651     -1.853885255061052
C       1.720658734859152     -2.977456017512533     -0.624951506898100
C       0.362112842642193     -3.413929901124670     -0.624978977391947
C       2.767802716111478     -1.159928017400580     -1.861489928677132
C       2.399781062128457     -0.007385974387747     -2.638883764517673
C       2.770490567180127      1.148314405180567     -1.863292481142205
C       3.356181545262406      0.710243589485054     -0.628675698298169
C       3.358529009363313     -0.717601800381883     -0.629352784492945
C       1.954170231710733      2.262540685640087     -1.860258305595068
C       0.743599679157160      2.269259256703243     -2.634803991221257
C      -0.237582431100669      2.972949925166180     -1.856871705991692
C       0.359243994363158      3.384797137513202     -0.615421851481977
C       1.712990252926974      2.949548804346315     -0.622106799483165
C      -1.552267090620373      2.548996012625307     -1.860838646936912
C      -1.934134413736180      1.399179442033658     -2.636763105573800
C      -2.909506690142943      0.683451498153213     -1.857377803192723
C      -3.117270988472245      1.384433326619183     -0.622597677782026
C      -2.276476224569730      2.536062781870471     -0.622369786195404
C      -2.915721866151452     -0.699345548807735     -1.852949695393155
C      -1.936021117238677     -1.417956870499214     -2.632633560679611
C      -1.555948224411636     -2.568931774798111     -1.864370966867343
C      -2.295382029677397     -2.559191885889162     -0.628695664035822
C      -3.133607233397597     -1.401120526680918     -0.624675352191529
C      -0.988979708963325     -0.728501259719724     -3.370331270527556
C      -0.987247717434389      0.712813900877409     -3.375361479426565
C       0.381171050008700      1.156624794079385     -3.374696937821871
C       1.228078889331227     -0.006239625154817     -3.374850718532470
C       0.380860033202664     -1.171849230311182     -3.369112662487649
Cl     -1.616405601853882      0.048020646835179      5.351443873849067
Cl     -4.095468902951303      0.033232292057129      3.844545844284747
Cl      3.075424810054655     -2.125785683787449      4.130530457210622
Cl      2.990642680028344      2.120965709829058      4.156920926662112
Cl     -1.198459432633974      3.594129223256539      4.125643090017714
