63

C      -1.325019464999016      0.013359609091916      3.581894184548917
C      -0.383304634205980     -1.135239627116500      3.279372538214428
C       0.949273429203142     -0.706385549268027      3.271768288057725
C       0.966964628902998      0.701687107741745      3.264169129313526
C      -0.404803603589061      1.162315629192411      3.288299601171162
C       2.307876658687853     -2.556615014706877      0.575163274709064
C       3.163114202030545     -1.397833210114112      0.571610218431890
C       2.943671086835912     -0.701157902332903      1.796078977938923
C       2.083227431459048     -1.510509910170370      2.728704822749847
C       1.579406079224494     -2.575207208119621      1.796760525799682
C       3.169596306543590      1.389896538207803      0.562936663628438
C       2.324029285267273      2.549326924166848      0.567882969953421
C       1.560389733415869      2.547517875395473      1.790174438872924
C       1.926048215561046      1.400912309234568      2.541209269936179
C       2.929376431433922      0.668522102950883      1.790306344266237
C      -0.365651270278591      3.410733446173989      0.580427699745760
C      -1.733434398833724      2.966645761152301      0.573083943922452
C      -1.992880338129968      2.261794172524634      1.794733686302797
C      -0.748823811238578      2.260513518959199      2.568302748507570
C       0.239019194077357      2.966142808017488      1.795994584954429
C      -3.374143867866305      0.720836849452437      0.572791849738263
C      -3.360558086587614     -0.710453758305496      0.576916575042988
C      -2.791433215505397     -1.150055804723482      1.807620272377441
C      -2.664343358974945      0.010809123524884      2.762276572613907
C      -2.804869781903781      1.168138515116550      1.808120852475146
C      -1.714504628242405     -2.950497474853525      0.573187503749103
C      -0.352592053889195     -3.389804300326727      0.572262156363412
C       0.263933449212870     -2.955275809656145      1.797534421198976
C      -0.743443046523105     -2.251702200738151      2.564476665336695
C      -1.970646473092092     -2.246449589868522      1.804174295615619
C      -0.236480847369043     -2.989554358051322     -1.850760464632005
C       0.751306210074917     -2.277796340499950     -2.612186009391611
C       1.966217558885996     -2.271854853923671     -1.837334423807100
C       1.727445254740908     -2.978242926243893     -0.615476622540820
C       0.364516661148119     -3.409845058255406     -0.612168371580829
C       2.783378500173640     -1.153603291013714     -1.838370000431334
C       2.414382592690336      0.006304731987813     -2.613670670667797
C       2.791569855411315      1.165183854771068     -1.849873394508455
C       3.394487355430384      0.718801873251880     -0.622935552885588
C       3.384924723630391     -0.712391608977250     -0.616170985233921
C       1.974687046034275      2.283889071013055     -1.840957785375146
C       0.754467319070280      2.286346980499073     -2.597349385501404
C      -0.236336713920489      2.994695853964844     -1.834666219456118
C       0.364439537059681      3.422954634325493     -0.601820400259730
C       1.735707197092975      2.983251002325081     -0.607261317651919
C      -1.553325260682652      2.568072448376506     -1.842159823280439
C      -1.929042851369899      1.411905586493579     -2.607632762193288
C      -2.916197750094628      0.695085613534610     -1.836090848266869
C      -3.145540934721494      1.404234152448322     -0.610825952012344
C      -2.305820519341346      2.562011746477051     -0.616724345135565
C      -2.914476165932004     -0.688946842715167     -1.833669266772771
C      -1.930553021457090     -1.407314196657927     -2.610866774852187
C      -1.552386440857558     -2.561875654652778     -1.847542559538117
C      -2.295428750501005     -2.549633083108321     -0.613307482099010
C      -3.141945696544707     -1.397281734800803     -0.611867827850761
C      -0.978070303435217     -0.716880851472134     -3.338446351119291
C      -0.976798729145039      0.725040965924145     -3.337175215612438
C       0.391368346948551      1.169446312643375     -3.335433102026421
C       1.238270505861575      0.006769880226295     -3.340426183825566
C       0.389373260565200     -1.159845977912606     -3.341811535226844
Cl     -1.647333589011832     -0.013834347614427      5.366758026950563
Cl     -4.119407086722234     -0.004183303698802      3.852518778530110
Cl      3.063099911197349     -2.205168997474232      4.116688166306455
