76

C       3.500512000000000     -0.651282000000000     -0.973912000000000
C       3.458399000000000      0.930285000000000     -0.746043000000000
C       3.057983000000000      1.081085000000000      0.787536000000000
C       3.478919000000000     -1.364250000000000      0.438423000000000
C       2.910829000000000     -0.305733000000000      1.316237000000000
C       2.481512000000000     -2.619604000000000      0.275329000000000
C       2.276967000000000     -1.188778000000000     -1.616873000000000
C       1.826957000000000     -2.341121000000000     -1.034118000000000
C       1.525480000000000     -0.512106000000000     -2.618368000000000
C       2.255458000000000      1.708802000000000     -1.539194000000000
C       1.400156000000000      0.910906000000000     -2.524357000000000
C       1.689187000000000      1.703650000000000      0.801819000000000
C       1.281273000000000      2.119006000000000     -0.443280000000000
C       0.773284000000000      1.517915000000000      1.841949000000000
C       2.029317000000000     -0.566599000000000      2.276793000000000
C       1.173845000000000      0.522058000000000      2.930892000000000
C       1.358263000000000     -2.739514000000000      1.304021000000000
C       1.328620000000000     -1.844536000000000      2.360073000000000
C       0.134515000000000     -3.441888000000000      0.948278000000000
C       0.638491000000000     -2.998903000000000     -1.455112000000000
C      -0.205663000000000     -3.655691000000000     -0.469233000000000
C       0.513417000000000     -1.275422000000000     -3.218637000000000
C       0.101644000000000     -2.545957000000000     -2.668137000000000
C      -0.635413000000000     -0.655445000000000     -3.796109000000000
C       0.197353000000000      1.479816000000000     -2.913946000000000
C      -0.806278000000000      0.709264000000000     -3.573698000000000
C      -0.052114000000000      2.489736000000000     -0.669021000000000
C      -0.498943000000000      2.603560000000000     -2.121100000000000
C      -0.551421000000000      1.941247000000000      1.665860000000000
C      -0.961851000000000      2.460070000000000      0.405553000000000
C      -1.574660000000000      1.638006000000000      2.770371000000000
C      -0.026121000000000     -0.249696000000000      3.398295000000000
C       0.152959000000000     -1.646629000000000      3.143245000000000
C      -1.275931000000000      0.285855000000000      3.405818000000000
C      -0.941272000000000     -3.408256000000000      1.869156000000000
C      -0.941394000000000     -2.478201000000000      2.967354000000000
C      -2.318451000000000     -3.568333000000000      1.459161000000000
C      -1.547331000000000     -3.888592000000000     -0.833209000000000
C      -2.619689000000000     -3.824869000000000      0.135957000000000
C      -1.284109000000000     -2.741242000000000     -2.991443000000000
C      -1.760040000000000     -1.562457000000000     -3.681962000000000
C      -2.093064000000000     -3.412244000000000     -2.091733000000000
C      -3.032531000000000     -1.077334000000000     -3.413218000000000
C      -2.123248000000000      1.208572000000000     -3.242160000000000
C      -1.958678000000000      2.239739000000000     -2.270286000000000
C      -3.220331000000000      0.346655000000000     -3.193120000000000
C      -2.436433000000000      2.790009000000000      0.151110000000000
C      -2.853377000000000      2.368202000000000     -1.249454000000000
C      -2.960389000000000      1.407197000000000      2.201226000000000
C      -3.357638000000000      1.944214000000000      1.013494000000000
C      -2.417979000000000     -0.571503000000000      3.307684000000000
C      -2.268768000000000     -1.951514000000000      3.135222000000000
C      -3.144434000000000     -2.656519000000000      2.228267000000000
C      -3.469917000000000      0.131579000000000      2.614523000000000
C      -4.204217000000000     -1.997207000000000      1.613709000000000
C      -4.379572000000000     -0.569907000000000      1.821183000000000
C      -3.775417000000000     -3.209524000000000     -0.485149000000000
C      -3.449283000000000     -2.955778000000000     -1.868241000000000
C      -3.900936000000000     -1.790718000000000     -2.497487000000000
C      -4.539363000000000     -2.287519000000000      0.235085000000000
C      -4.193413000000000      0.509307000000000     -2.150220000000000
C      -3.991901000000000      1.503338000000000     -1.189546000000000
C      -4.306783000000000      1.248603000000000      0.196380000000000
C      -4.821975000000000      0.010608000000000      0.584595000000000
C      -4.644247000000000     -0.809215000000000     -1.732829000000000
C      -4.953773000000000     -1.051554000000000     -0.398827000000000
Cl      4.847352000000000     -1.229462000000000     -2.054662000000000
Cl      5.064205000000000      1.624685000000000     -1.081186000000000
Cl      4.191972000000000      2.091611000000000      1.796828000000000
Cl      1.994631000000000      1.324964000000000      4.363452000000000
Cl     -1.564109000000000      3.018836000000000      3.992132000000000
Cl     -2.696830000000000      4.594735000000000      0.439842000000000
Cl      5.116078000000000     -1.763674000000000      1.091934000000000
Cl      3.361446000000000     -4.230563000000000      0.205859000000000
Cl     -0.270058000000000      4.312018000000000     -2.773292000000000
Cl      2.879903000000000      3.176739000000000     -2.428405000000000
