70

C      -3.413079000000000      1.483734000000000      0.914656000000000
C      -3.714333000000000      0.633656000000000     -0.381280000000000
C      -3.690019000000000     -0.905223000000000      0.059425000000000
C      -2.938674000000000      0.458055000000000      1.893488000000000
C      -3.042384000000000     -0.826861000000000      1.411494000000000
C      -1.811012000000000      0.897176000000000      2.602439000000000
C      -2.184247000000000      2.382257000000000      0.851291000000000
C      -1.376687000000000      2.148497000000000      1.985272000000000
C      -1.581610000000000      2.799060000000000     -0.351010000000000
C      -2.559656000000000      0.736190000000000     -1.320944000000000
C      -1.797771000000000      1.931593000000000     -1.523239000000000
C      -2.722668000000000     -1.635789000000000     -1.005718000000000
C      -2.106359000000000     -0.486949000000000     -1.741469000000000
C      -1.589221000000000     -2.497960000000000     -0.433904000000000
C      -2.132842000000000     -1.760637000000000      1.857153000000000
C      -1.521759000000000     -2.727223000000000      0.933892000000000
C      -0.867898000000000     -0.025458000000000      3.101684000000000
C      -1.148367000000000     -1.404031000000000      2.821011000000000
C       0.524545000000000      0.396251000000000      3.275772000000000
C      -0.020223000000000      2.549260000000000      2.050449000000000
C       0.944336000000000      1.715706000000000      2.778548000000000
C      -0.326727000000000      3.437147000000000     -0.236525000000000
C       0.424433000000000      3.371484000000000      0.985406000000000
C       0.625629000000000      3.461456000000000     -1.329679000000000
C      -0.795138000000000      1.843670000000000     -2.485450000000000
C       0.389943000000000      2.683281000000000     -2.453491000000000
C      -0.935982000000000     -0.630652000000000     -2.533702000000000
C      -0.403364000000000      0.567081000000000     -3.041289000000000
C      -0.394518000000000     -2.710086000000000     -1.240781000000000
C      -0.091840000000000     -1.804958000000000     -2.365792000000000
C       0.700466000000000     -3.383492000000000     -0.643036000000000
C      -0.314756000000000     -3.183714000000000      1.555788000000000
C      -0.079933000000000     -2.362569000000000      2.728071000000000
C       0.754871000000000     -3.588995000000000      0.784079000000000
C       1.504416000000000     -0.614356000000000      3.398930000000000
C       1.200201000000000     -2.005376000000000      3.076009000000000
C       2.871987000000000     -0.395644000000000      3.029056000000000
C       2.313333000000000      1.921993000000000      2.501830000000000
C       3.275421000000000      0.858100000000000      2.600299000000000
C       1.824890000000000      3.475099000000000      0.657119000000000
C       1.961897000000000      3.537610000000000     -0.783453000000000
C       2.750846000000000      2.788364000000000      1.414966000000000
C       3.024083000000000      2.886562000000000     -1.406593000000000
C       1.478112000000000      1.964005000000000     -3.074058000000000
C       0.969738000000000      0.658234000000000     -3.447063000000000
C       2.777678000000000      2.080811000000000     -2.587882000000000
C       1.231999000000000     -1.708339000000000     -2.835258000000000
C       1.770265000000000     -0.463905000000000     -3.357176000000000
C       2.061480000000000     -3.196548000000000     -1.091821000000000
C       2.324431000000000     -2.392582000000000     -2.180331000000000
C       2.111535000000000     -3.354223000000000      1.234257000000000
C       2.332050000000000     -2.572476000000000      2.372905000000000
C       3.388100000000000     -1.589609000000000      2.376063000000000
C       2.938590000000000     -3.160808000000000      0.067034000000000
C       4.239232000000000     -1.463650000000000      1.282114000000000
C       4.006984000000000     -2.268162000000000      0.096233000000000
C       4.234153000000000      0.986663000000000      1.519258000000000
C       3.905178000000000      2.185601000000000      0.781257000000000
C       4.026627000000000      2.210607000000000     -0.608695000000000
C       4.681912000000000     -0.150527000000000      0.852029000000000
C       3.631802000000000      0.910828000000000     -2.520768000000000
C       3.148917000000000     -0.333828000000000     -2.929031000000000
C       3.491032000000000     -1.528033000000000     -2.192004000000000
C       4.301876000000000     -1.446410000000000     -1.062368000000000
C       4.429856000000000      1.004800000000000     -1.311708000000000
C       4.753030000000000     -0.147132000000000     -0.598155000000000
Cl     -4.830058000000000      2.433236000000000      1.558467000000000
Cl     -5.189623000000000      1.134854000000000     -1.295945000000000
Cl     -5.308347000000000     -1.671687000000000      0.256658000000000
Cl     -3.647787000000000     -2.686504000000000     -2.204687000000000
