63

C      -1.284249460076051      0.016334909792900      3.538142118674471
C      -0.347539845791742     -1.151651274742961      3.284969205814630
C       0.924495894684479     -0.721980192316948      3.201976849638818
C       0.955421930275234      0.739357812359173      3.239643917889711
C      -0.378117993826496      1.195279006683509      3.307375801218456
C       2.291988161358745     -2.555181653666780      0.569710349390750
C       3.145723393766449     -1.401761547206240      0.566713013581633
C       2.935557882373826     -0.704820755843694      1.796684513111575
C       2.086548714815147     -1.525661937885043      2.727978033195331
C       1.563188000604424     -2.595387644059062      1.800210289290153
C       3.156343543012092      1.386079686959891      0.562726806851203
C       2.320848180519380      2.557893645654348      0.569166250776212
C       1.564374633838362      2.574926861231307      1.791393564798951
C       1.926396093152823      1.417109313969101      2.537708098461642
C       2.926570619221057      0.663182318121241      1.787033635450658
C      -0.361795257817799      3.453315618217507      0.578969695867921
C      -1.739828169454801      3.011648299834690      0.579957444602438
C      -1.962899365668693      2.313338070298369      1.803606115572537
C      -0.742035411384368      2.305652486607734      2.580249743499571
C       0.244955271371096      3.007038206007419      1.803313857475368
C      -3.357709716051132      0.712246957460171      0.565546711602116
C      -3.335369706096139     -0.715222716362053      0.569190977042941
C      -2.712365646015734     -1.158017258720750      1.805916149397147
C      -2.378713387028324      0.014593974955120      2.544190755628779
C      -2.747702520300451      1.156786689918963      1.807630825701498
C      -1.704376108600148     -2.970425282432946      0.586885641659444
C      -0.335975029444743     -3.408483057441030      0.582079680773569
C       0.270939701556227     -3.009993626967276      1.816666561428458
C      -0.783825994309402     -2.483211462666600      2.765226565212898
C      -1.939997984633537     -2.299904747872302      1.815329484593276
C      -0.242449589934988     -2.979644444794560     -1.844927446132939
C       0.737125603913555     -2.265541626532388     -2.617740788803573
C       1.955693394412399     -2.265165676973925     -1.849811588423365
C       1.719919898018355     -2.967312366990342     -0.620106318141818
C       0.362038883891508     -3.404434038681570     -0.610230443221385
C       2.771803054681779     -1.149251994198873     -1.845878736591606
C       2.399546007379745      0.012429163301822     -2.616327621540118
C       2.774065148075385      1.167425980010402     -1.849349202092313
C       3.381454877998807      0.718741729678981     -0.624618317023404
C       3.369970818350850     -0.712123788029585     -0.616618432177487
C       1.961119595013554      2.288842414936328     -1.838844372608710
C       0.737458810546315      2.292245778770508     -2.590262647976335
C      -0.247184647456570      3.009289984882819     -1.829739346217717
C       0.360336737704588      3.440253554754710     -0.599091671738019
C       1.728648227836540      2.990056091412504     -0.604261777534533
C      -1.566276107860467      2.586841488684211     -1.826769870903411
C      -1.946077051059503      1.425044690186229     -2.591927349409157
C      -2.934936482283283      0.705269171520766     -1.838435511617194
C      -3.156417352217446      1.413200377107661     -0.603959967087413
C      -2.320732934116445      2.589690545881659     -0.607818597988099
C      -2.927396329040850     -0.681934887316531     -1.841139194891347
C      -1.945221065282242     -1.396845005029141     -2.606195573943120
C      -1.559710853996056     -2.556275267358137     -1.834452962602155
C      -2.294797448404091     -2.554946382362041     -0.607335518813714
C      -3.138429689142438     -1.397317894685432     -0.610148515524573
C      -0.996453078498645     -0.704221457342564     -3.333677404719289
C      -0.996813778899261      0.736108635876088     -3.327267175883690
C       0.373434506123292      1.178566730887366     -3.332800013209306
C       1.218956625233415      0.015708387139290     -3.340133443079916
C       0.373190352539087     -1.148265929720832     -3.346485272935114
Cl     -2.023785361747131     -0.031919549251198      5.197955402414286
Cl      2.991983893481206     -2.205763919323796      4.139698458117542
Cl     -1.127638277809476     -3.580543106995484      4.161048674700974
