62

C       0.208174185345656     -0.070018748253282     -3.770048025790194
C       0.267272359709608      1.342736852982423     -3.250384925262406
C      -1.022236025218491      1.775582831804709     -2.834041360080595
C      -1.157821246099181     -0.491895936754960     -3.295183229306137
C      -1.906249012813203      0.637524631678100     -2.861830578485164
C      -1.401378610245522     -1.714519481979146     -2.721042308029443
C      -0.307678101862527     -2.593310366222745     -2.339508170252939
C       1.269372110937121     -0.909598815702640     -3.144684672813367
C       0.998100969243847     -2.167007692888719     -2.561804500323078
C       2.406285482901693     -0.354144067998640     -2.517538023149163
C       1.377563401943917      1.863026629189671     -2.633685005303496
C       2.490555208169640      1.009070695196744     -2.251544839409793
C       1.236744312814994      2.847878373024710     -1.597200851988225
C      -1.170403978195308      2.733127103368083     -1.837245074371554
C      -0.015135523288675      3.290195882154717     -1.206932192883329
C      -2.193855141739809      2.600690266911497     -0.844526435606992
C      -2.893957126788282      0.514263519736193     -1.891425067966885
C      -3.042617258520147      1.508013013155608     -0.871207381675638
C      -2.414655038597363     -1.852848980855569     -1.711983741977786
C      -3.162320865488954     -0.761418635087095     -1.305864842986193
C      -0.647970117596547     -3.253099592709031     -1.126709161616028
C      -1.963417715042986     -2.802536706137289     -0.734918756815808
C       0.312680482038150     -3.501344858891154     -0.152795424149669
C       2.008381242880398     -2.425834855841558     -1.546982082869568
C       2.883167554371569     -1.299655379878187     -1.519483052858517
C       1.670683504277006     -3.075163502474969     -0.377301201449563
C       3.400789195938469     -0.847865733381727     -0.322914951571781
C       3.016646136890987      1.464642943925892     -1.011510715983913
C       2.245214971520382      2.615560160785269     -0.602619072918634
C       3.471956558646123      0.565833849728839     -0.053482711358883
C       1.956891238159266      2.809867033340348      0.735225318050270
C      -0.320193155461839      3.500212551634080      0.181653043474146
C      -1.674625213055061      3.078092287793786      0.412203590812682
C       0.651825574814509      3.266027914623709      1.138207970234768
C      -2.008241037790941      2.433020299339143      1.587431324232165
C      -3.406146719652255      0.848970677412925      0.357772724799466
C      -3.474122409874020     -0.560083741043731      0.082508472491051
C      -2.891769008766584      1.295586921217600      1.559657374428273
C      -2.254658991043748     -2.611985529464453      0.602834162077478
C      -3.029205540241698     -1.472846795368172      1.022493764890520
C       0.003359412724288     -3.294326307693047      1.229393886397175
C      -1.257744826246307     -2.863072740882413      1.608947807583327
C       2.204216492369723     -2.612859991519390      0.876202980406417
C       3.055501697835965     -1.516935371136034      0.902963392542811
C       1.172896179707067     -2.745858026793843      1.869655534546137
C       3.162154481772258      0.772233151229844      1.328691570554617
C       2.423172879733168      1.875655600483296      1.724658502107751
C       2.905419071292680     -0.515448075375674      1.924118188139970
C       0.304985606084276      2.597584760796211      2.360406516610952
C      -0.999852950571610      2.187248203674687      2.580794267085035
C       1.399158889727165      1.736624206236521      2.720324534504579
C      -2.427492533413842      0.349338092451036      2.535916190002525
C      -2.496576639244385     -1.009081971595680      2.272338857557585
C      -1.400226532289244     -1.867239894333090      2.632325127192539
C      -1.260194733409915      0.901142116140643      3.168621773103546
C       1.031506420079348     -1.782748622787476      2.850223700430895
C       1.914382934399875     -0.646154148802004      2.877977169702591
C       1.148622298007558      0.499439481890236      3.289634202318177
C      -0.277446064180898     -1.336447774434921      3.244805374489744
C      -0.205021391831404      0.073111086223218      3.512656526760415
Cl      0.373161976931972     -0.153717564531730     -5.590788442962527
Cl      1.737387633279772      0.738876535610873      4.984368776606250
