90

C       1.301937000000000     -3.768709000000000      1.238898000000000
C       0.007450000000000     -3.334735000000000     -3.012023000000000
C      -1.071721000000000      4.118637000000000      0.566793000000000
C      -1.404220000000000      1.912144000000000     -3.514688000000000
C      -0.100916000000000     -3.904829000000000      1.455615000000000
C       1.283893000000000     -3.579924000000000     -2.398869000000000
C      -2.471957000000000      3.490785000000000      0.595875000000000
C      -0.458538000000000      2.813047000000000     -2.924657000000000
C      -0.971801000000000     -4.200095000000000      0.318452000000000
C       2.298065000000000     -2.637065000000000     -2.508670000000000
C       0.885376000000000      2.486984000000000     -2.888150000000000
C      -3.146780000000000      2.964871000000000     -0.532275000000000
C      -0.364540000000000     -4.357601000000000     -0.951750000000000
C      -2.451855000000000      3.040155000000000     -1.764403000000000
C       1.060384000000000     -4.225261000000000     -1.140150000000000
C      -1.058153000000000      3.476909000000000     -1.818369000000000
C       1.877063000000000     -3.906457000000000     -0.066348000000000
C      -0.296838000000000      3.776434000000000     -0.685966000000000
C       2.972430000000000     -2.989556000000000     -0.206591000000000
C       1.086078000000000      3.424212000000000     -0.648535000000000
C       3.243578000000000     -2.310954000000000      1.119199000000000
C       1.826914000000000      3.286208000000000      0.662618000000000
C       2.101796000000000     -2.850097000000000      1.975687000000000
C       0.883616000000000      3.120765000000000      1.840912000000000
C       1.551228000000000     -2.126483000000000      2.997942000000000
C      -0.432861000000000      3.520094000000000      1.814476000000000
C       0.190413000000000     -2.298016000000000      3.308658000000000
C      -1.397203000000000      2.816677000000000      2.564689000000000
C      -0.638429000000000     -3.198607000000000      2.593665000000000
C      -2.659987000000000      2.917459000000000      1.858943000000000
C      -2.027907000000000     -2.946468000000000      2.655171000000000
C      -3.655296000000000      1.975815000000000      2.077125000000000
C      -2.898387000000000     -3.335405000000000      1.584581000000000
C      -4.470225000000000      1.529927000000000      0.973902000000000
C      -2.377603000000000     -3.817179000000000      0.354940000000000
C      -4.149832000000000      1.905709000000000     -0.354191000000000
C      -3.073168000000000     -3.437826000000000     -0.880175000000000
C      -4.366827000000000      0.922474000000000     -1.420414000000000
C      -2.323888000000000     -3.399774000000000     -2.133051000000000
C      -1.590508000000000     -1.740395000000000     -3.837419000000000
C      -1.964723000000000     -0.369993000000000     -3.990930000000000
C      -3.564119000000000      1.000977000000000     -2.642402000000000
C      -1.004680000000000     -3.899380000000000     -2.151598000000000
C      -0.232704000000000     -2.143824000000000     -3.743997000000000
C      -0.984514000000000      0.653337000000000     -4.005982000000000
C      -2.644400000000000      2.078808000000000     -2.792585000000000
C       0.809003000000000     -1.121216000000000     -3.827836000000000
C       0.432807000000000      0.274449000000000     -3.947980000000000
C       2.072775000000000     -1.418227000000000     -3.242484000000000
C       1.346673000000000      1.239426000000000     -3.453784000000000
C       2.911383000000000     -0.412739000000000     -2.685063000000000
C       2.556453000000000      0.895980000000000     -2.797566000000000
C       3.173016000000000     -2.362582000000000     -1.403156000000000
C       1.671546000000000      2.821265000000000     -1.761460000000000
C       3.700245000000000     -0.945311000000000     -1.498048000000000
C       2.911631000000000      1.924047000000000     -1.740269000000000
C       3.126654000000000     -0.784014000000000      0.995045000000000
C       2.586982000000000      1.957920000000000      0.711489000000000
C       2.585270000000000     -0.057187000000000      2.080255000000000
C       2.318839000000000      1.300849000000000      1.919799000000000
C       1.982078000000000     -0.711156000000000      3.306419000000000
C       1.248877000000000      2.011973000000000      2.625414000000000
C       0.651337000000000     -0.061654000000000      3.691791000000000
C       0.312425000000000      1.287867000000000      3.402845000000000
C      -0.336303000000000     -1.027396000000000      3.797422000000000
C      -1.086602000000000      1.662816000000000      3.342212000000000
C      -1.731826000000000     -0.718466000000000      3.740825000000000
C      -2.125773000000000      0.659247000000000      3.542943000000000
C      -2.573987000000000     -1.778927000000000      3.309171000000000
C      -3.424883000000000      0.893412000000000      2.981971000000000
C      -3.840222000000000     -1.506944000000000      2.705141000000000
C      -4.259675000000000     -0.194586000000000      2.546530000000000
C      -4.053359000000000     -2.478840000000000      1.645016000000000
C      -4.916309000000000      0.204860000000000      1.308823000000000
C      -4.685065000000000     -2.098014000000000      0.479821000000000
C      -5.120216000000000     -0.719928000000000      0.302958000000000
C      -4.208804000000000     -2.592257000000000     -0.782953000000000
C      -4.885409000000000     -0.351804000000000     -1.065284000000000
C      -2.633525000000000     -2.418650000000000     -3.110867000000000
C      -3.249876000000000     -0.175792000000000     -3.363968000000000
C      -4.457463000000000     -1.552560000000000     -1.756563000000000
C      -3.672009000000000     -1.461941000000000     -2.882605000000000
C       3.354469000000000     -0.133946000000000     -0.243682000000000
C       3.060203000000000      1.250844000000000     -0.384186000000000
Cl     -1.193233000000000      5.970183000000000      0.713908000000000
Cl      2.969426000000000      4.715897000000000      0.928726000000000
Cl      4.440079000000000      2.865304000000000     -2.165056000000000
Cl      5.522777000000000     -0.906328000000000     -1.788400000000000
Cl      4.894747000000000     -2.747086000000000      1.813284000000000
Cl      3.177853000000000     -0.634891000000000      4.721507000000000
