100

C      -0.216540000000000      0.134073000000000      3.949161000000000
C      -3.789090000000000      1.991727000000000      1.356922000000000
C       1.629311000000000     -1.486079000000000     -3.684740000000000
C      -2.401385000000000      0.640464000000000     -3.772813000000000
C       0.440205000000000      1.342693000000000      3.284560000000000
C      -3.423746000000000      0.677247000000000      2.042729000000000
C       2.067089000000000     -0.170292000000000     -3.928236000000000
C      -1.976475000000000     -0.760614000000000     -3.732180000000000
C      -0.373828000000000      2.403530000000000      2.737169000000000
C      -3.612828000000000     -0.604104000000000      1.527942000000000
C      -2.464209000000000     -1.682259000000000     -2.817376000000000
C       1.148235000000000      0.902093000000000     -4.211183000000000
C      -1.775140000000000      2.218461000000000      2.630457000000000
C      -0.180195000000000      0.519943000000000     -4.419921000000000
C      -2.372933000000000      0.925917000000000      2.935725000000000
C      -0.621353000000000     -0.816895000000000     -4.163978000000000
C      -1.604253000000000     -0.099871000000000      3.429392000000000
C       0.245522000000000     -1.820738000000000     -3.690623000000000
C      -1.813596000000000     -1.399333000000000      2.962594000000000
C      -0.267505000000000     -2.797913000000000     -2.771934000000000
C      -0.579873000000000     -2.241582000000000      3.229504000000000
C       0.746942000000000     -3.698577000000000     -2.061451000000000
C       0.445739000000000     -1.171615000000000      3.560909000000000
C       2.125902000000000     -3.080735000000000     -1.927692000000000
C       1.708233000000000     -1.231574000000000      3.154034000000000
C       2.543309000000000     -2.114364000000000     -2.748923000000000
C       2.587614000000000     -0.006497000000000      3.075258000000000
C       3.688844000000000     -1.171169000000000     -2.425838000000000
C       1.795562000000000      1.284254000000000      2.976180000000000
C       3.276886000000000      0.065386000000000     -3.189361000000000
C       2.380896000000000      2.333994000000000      2.242916000000000
C       3.563812000000000      1.312070000000000     -2.761234000000000
C       1.623693000000000      3.398950000000000      1.767528000000000
C       2.676843000000000      2.411681000000000     -3.059180000000000
C       0.203413000000000      3.415439000000000      1.893565000000000
C       1.443436000000000      2.241784000000000     -3.727002000000000
C      -0.596595000000000      4.079051000000000      0.894620000000000
C       0.336623000000000      3.149736000000000     -3.405842000000000
C      -1.947693000000000      3.734556000000000      0.735967000000000
C      -3.486131000000000      2.761425000000000     -0.983922000000000
C      -3.145763000000000      2.421730000000000     -2.318291000000000
C      -1.033381000000000      2.714578000000000     -3.597099000000000
C      -2.533018000000000      2.835249000000000      1.643339000000000
C      -3.974575000000000      1.802023000000000     -0.118382000000000
C      -3.325879000000000      1.108000000000000     -2.804997000000000
C      -1.285340000000000      1.415465000000000     -4.138545000000000
C      -4.225866000000000      0.501347000000000     -0.626475000000000
C      -3.923070000000000      0.163120000000000     -1.934297000000000
C      -4.388284000000000     -0.738923000000000      0.233316000000000
C      -3.773009000000000     -1.334771000000000     -2.112038000000000
C      -2.786049000000000     -1.661370000000000      1.993017000000000
C      -1.601651000000000     -2.718718000000000     -2.338124000000000
C      -2.671244000000000     -2.957211000000000      1.223513000000000
C      -2.076493000000000     -3.547916000000000     -1.141541000000000
C      -3.030182000000000     -2.786148000000000     -0.239213000000000
C      -3.800371000000000     -1.796578000000000     -0.676851000000000
C      -0.196547000000000     -3.021644000000000      1.993399000000000
C       0.373547000000000     -3.851106000000000     -0.617892000000000
C       1.139179000000000     -3.078225000000000      1.552839000000000
C       1.409874000000000     -3.511046000000000      0.249668000000000
C       2.241107000000000     -2.344426000000000      2.283130000000000
C       2.677481000000000     -3.198906000000000     -0.528175000000000
C       3.075506000000000     -1.547679000000000      1.296247000000000
C       3.267990000000000     -1.878964000000000     -0.044900000000000
C       3.293187000000000     -0.251138000000000      1.751755000000000
C       3.728863000000000     -0.881515000000000     -0.924676000000000
C       3.745724000000000      0.752567000000000      0.894898000000000
C       3.987250000000000      0.431798000000000     -0.456819000000000
C       3.662682000000000      2.179514000000000      1.412075000000000
C       4.306733000000000      1.553828000000000     -1.456398000000000
C       3.414432000000000      3.161842000000000      0.292029000000000
C       3.705362000000000      2.874208000000000     -1.011276000000000
C       2.286052000000000      3.981818000000000      0.609122000000000
C       2.853350000000000      3.393839000000000     -2.036791000000000
C       1.543992000000000      4.599288000000000     -0.365007000000000
C       1.798964000000000      4.250546000000000     -1.718848000000000
C       0.082579000000000      4.943514000000000     -0.175495000000000
C       0.555570000000000      4.154704000000000     -2.428326000000000
C      -2.713544000000000      4.009557000000000     -0.554074000000000
C      -2.042000000000000      3.238585000000000     -2.746879000000000
C      -0.481025000000000      4.611089000000000     -1.550074000000000
C      -1.755575000000000      4.176358000000000     -1.714935000000000
C      -1.221597000000000     -3.388434000000000      1.112023000000000
C      -0.934780000000000     -3.784781000000000     -0.192065000000000
Cl     -0.838741000000000     -3.389161000000000      4.651888000000000
Cl     -3.699609000000000     -4.269958000000000      2.022048000000000
Cl      3.271387000000000     -3.532306000000000      3.246109000000000
Cl      3.927589000000000     -4.547092000000000     -0.361340000000000
Cl      5.299396000000000     -1.847248000000000     -2.993337000000000
Cl      6.129121000000000      1.675097000000000     -1.682166000000000
Cl      5.185897000000000      2.615487000000000      2.349435000000000
Cl      3.755202000000000      0.055211000000000      4.499590000000000
Cl     -6.170014000000000     -1.065691000000000      0.597677000000000
Cl     -5.290362000000000      2.734650000000000      2.130602000000000
Cl     -0.221308000000000      0.382495000000000      5.788462000000000
Cl     -3.832090000000000      5.454782000000000     -0.346778000000000
Cl     -0.125277000000000      6.731291000000000      0.260689000000000
Cl     -5.184264000000000     -2.046006000000000     -3.086083000000000
Cl     -2.832382000000000     -5.121061000000000     -1.740139000000000
Cl      0.835482000000000     -5.331198000000000     -2.939806000000000
