64

C      -1.307239419511898      0.022722116979402      3.573054615227917
C      -0.377717168580014     -1.137980938112843      3.253548559162300
C       0.903764216780581     -0.721995844293629      3.183364607901496
C       0.944209744041506      0.726731712461910      3.224417205055496
C      -0.399792775312407      1.187093411089382      3.285815377244288
C       2.287325526657265     -2.545992357532008      0.567715572945285
C       3.146719798161805     -1.399265653410718      0.565672105634302
C       2.933538378681613     -0.703932577782880      1.795839323110253
C       2.080688668159241     -1.520711389538876      2.725388225579790
C       1.556176429277612     -2.586189498880315      1.796183379886326
C       3.159202973196152      1.385108831318329      0.561001455997725
C       2.315980437363809      2.551485451906129      0.566890448221926
C       1.554037862075484      2.562762511906700      1.784409717604203
C       1.912932232868304      1.406228879458393      2.532439661289431
C       2.925363815471842      0.662625795728047      1.784354816436916
C      -0.371322120517501      3.425959614197592      0.568596672812989
C      -1.736439109771146      2.978228834180587      0.560139020147965
C      -1.990434956123374      2.280934815371015      1.788249908633451
C      -0.752346007199677      2.291652098083962      2.566550168678913
C       0.232561026189327      2.984981558784582      1.793314230780872
C      -3.339987337119084      0.720810084278115      0.570869635147490
C      -3.301922046015698     -0.702368676962592      0.574675581696366
C      -2.720406214118114     -1.149718561495418      1.811486576829573
C      -2.638019234643659      0.018752943236501      2.768440348689277
C      -2.781919836024696      1.172009168878473      1.810299200579021
C      -1.694770536270434     -2.935470359596234      0.574273803365168
C      -0.342212197427468     -3.384359732291151      0.576089685741327
C       0.261853806980880     -2.986655415554365      1.814237955094297
C      -0.798704021536363     -2.473629821790441      2.760394778478986
C      -1.949296711468249     -2.259371575782485      1.813235303095296
C      -0.231499142475907     -2.969621704082825     -1.852459985569992
C       0.752280385774508     -2.263355737849726     -2.626782944052122
C       1.963638629802320     -2.260812080162333     -1.853005800305108
C       1.719985173056340     -2.957858910820929     -0.622321877241419
C       0.363520926032933     -3.387428148806692     -0.612608966709921
C       2.783503382835793     -1.148677514539663     -1.848979086386860
C       2.411458321673574      0.011052692798447     -2.621360389714552
C       2.785312898768872      1.165399932251880     -1.852322732088907
C       3.388056182654454      0.718715171166792     -0.625806393828203
C       3.374600483833753     -0.711061566558610     -0.617434129437189
C       1.968546313415256      2.282666327984948     -1.843307321844869
C       0.751127930601800      2.287611043918551     -2.602187549829091
C      -0.237747512477938      2.998732317252983     -1.842950793699174
C       0.360510589872846      3.424800340906490     -0.607602707392083
C       1.729510931912822      2.979936549065667     -0.609645131323956
C      -1.554151835568733      2.575286712354340     -1.853234087836064
C      -1.929740568535200      1.421693391404470     -2.622016736778849
C      -2.911765044458357      0.704797917433673     -1.846844728849812
C      -3.132310670861127      1.407824915214076     -0.615405379761672
C      -2.306981016864516      2.571993196196251     -0.628827365822707
C      -2.901464924171457     -0.676621445623444     -1.847651623780842
C      -1.927413698754604     -1.392651314137662     -2.628110957450956
C      -1.544146473451534     -2.541902153288012     -1.852728211952287
C      -2.268688664841877     -2.528416029377942     -0.614521374331648
C      -3.106593750263944     -1.377405129506984     -0.612716399381116
C      -0.977967266293154     -0.706022195303483     -3.361841310825377
C      -0.979127220594295      0.734254943677081     -3.355023396876215
C       0.390254912136038      1.176261247717971     -3.348744303053539
C       1.237503465419848      0.013698585506266     -3.352959625057296
C       0.389167689002549     -1.150130348487724     -3.361701780146772
Cl     -1.612326127311777     -0.039007737730740      5.363922858228388
Cl     -4.093653902443916     -0.037819311904072      3.839927382105357
Cl      2.978099147876986     -2.188893403322047      4.145773814917124
Cl     -1.176403228767740     -3.587809390896969      4.129531106938997
