68

C       0.175326215680277     -0.078568839604707     -3.865154206707189
C       0.259221927456570      1.457354172962546     -3.534576803683592
C      -1.044651381160913      1.772215289361903     -2.850028688191719
C      -1.158652856400954     -0.502020591603441     -3.283461502182611
C      -1.901135144211084      0.633296819004497     -2.828713342479745
C      -1.411190826204387     -1.711557758361097     -2.718001893189068
C      -0.348428053439516     -2.761490861811578     -2.497846172829044
C       1.215050661528552     -0.873780733803247     -3.147755851831703
C       0.929729714968516     -2.009378530591738     -2.485256297403899
C       2.578470202342105     -0.397269663644591     -2.713836263062564
C       1.364612677456353      1.771271975941076     -2.585791394253881
C       2.400989630827612      0.979629641008225     -2.236187269517754
C       1.221348529893509      2.800394503883017     -1.547981335047220
C      -1.183579827666912      2.708595556848104     -1.860335673002146
C      -0.003269881848254      3.268670777274052     -1.192422761007359
C      -2.186507024157304      2.598617578981179     -0.849312772088801
C      -2.874588738544792      0.513972494019457     -1.852858694416589
C      -3.049247791752522      1.513558969384933     -0.836315329104354
C      -2.395584144103349     -1.840092897351344     -1.683670164714910
C      -3.132890085938997     -0.751870226938360     -1.254573256994032
C      -0.656635864968291     -3.247946238420354     -1.099538104167132
C      -1.942004735948774     -2.767199566760152     -0.699926526108475
C       0.294672672982516     -3.478735918185235     -0.157091112803888
C       1.944985611609455     -2.262722587971861     -1.475465163983746
C       2.858857219373284     -1.279762635736888     -1.522937297130350
C       1.769639421882177     -3.266329904295012     -0.396544601884569
C       3.669211843382727     -0.909884223405517     -0.332574291770647
C       2.974555980961379      1.412075155083240     -0.951691608094277
C       2.209668613898135      2.549908668501836     -0.546298839661821
C       3.462805909724646      0.546271899559730     -0.033518271616961
C       1.941844528813659      2.808733489359023      0.777547936360188
C      -0.318111120375521      3.507598850184512      0.190168119076349
C      -1.668331783053097      3.085932074440445      0.410734355860141
C       0.645065076210889      3.283106899688590      1.169841430874994
C      -2.007690573409094      2.467136957348515      1.600691641115244
C      -3.417141907714333      0.875579329193538      0.384070541563227
C      -3.473220519164186     -0.560976959889237      0.129622553529247
C      -2.899539807468941      1.319192295310382      1.595328892994023
C      -2.263591066763309     -2.569795752446128      0.639048653641906
C      -3.057550209560869     -1.465950970543754      1.065648534631418
C      -0.004968663204860     -3.235465982541433      1.221804398323538
C      -1.263445287009935     -2.809374407354385      1.631536138040149
C       2.213274146562484     -2.597331134389120      0.881823748382073
C       3.043732766178509     -1.528589605937727      0.900020723329719
C       1.158355770597008     -2.700237995034923      1.845389512956892
C       3.138915843249464      0.757576251015418      1.341307243532164
C       2.403032303521232      1.866988172069106      1.753521256447891
C       2.853616713212425     -0.522318866304140      1.910908309725847
C       0.284535696570004      2.628344007387278      2.399488986272021
C      -1.018818877292751      2.232409311569030      2.610406197458296
C       1.387808595824485      1.758920655785625      2.756724151988892
C      -2.454604769496699      0.399143385049970      2.580211672523494
C      -2.706253764066230     -1.069831491015948      2.476507190755305
C      -1.434871617115942     -1.855663583520714      2.677488342506517
C      -1.301596383874087      0.930086455283654      3.201140862281849
C       0.980607109584962     -1.744240947115497      2.831720602200801
C       1.866156749620427     -0.631173072867385      2.870744791072472
C       1.108256356369154      0.517982220780522      3.313957795921655
C      -0.320773541364309     -1.314931022107850      3.258709832523885
C      -0.232906065244341      0.110837599297054      3.564043407977966
Cl      0.330490498897927     -0.472359801370525     -5.607738534095562
Cl     -0.344641047108354     -4.102803415638457     -3.696802071724136
Cl      0.501402244035083      2.487181656845871     -4.993706907178916
Cl      2.654473266364273     -4.791061151367272     -0.764524949750321
Cl      5.380297391973808     -1.387915489828651     -0.631954291724387
Cl      3.834127428321149     -0.367622880394880     -3.998913352179292
Cl     -4.009774559542849     -1.543283400817701      3.675493184794052
Cl      2.895851842934668     -3.383195583275545     -2.532107807889706
