96

C      -1.038469000000000      4.186286000000000     -1.185171000000000
C       3.117550000000000      2.713069000000000      0.678940000000000
C      -1.109175000000000     -4.072804000000000     -1.596271000000000
C       3.098351000000000     -3.049301000000000      0.175500000000000
C      -1.461069000000000      3.523132000000000      0.130216000000000
C       2.618008000000000      3.311227000000000     -0.614341000000000
C      -1.444398000000000     -4.163824000000000     -0.212600000000000
C       2.514054000000000     -3.379309000000000     -1.177275000000000
C      -0.497524000000000      3.338222000000000      1.186451000000000
C       2.915018000000000      2.768709000000000     -1.833075000000000
C       2.778155000000000     -2.631700000000000     -2.280205000000000
C      -0.446720000000000     -4.050315000000000      0.799832000000000
C       0.883935000000000      3.563912000000000      0.924389000000000
C       0.895758000000000     -4.027848000000000      0.353035000000000
C       1.352962000000000      3.940844000000000     -0.400959000000000
C       1.238246000000000     -4.012835000000000     -1.030072000000000
C       0.454580000000000      4.119638000000000     -1.422830000000000
C       0.238345000000000     -3.931107000000000     -2.036300000000000
C       0.730036000000000      3.501041000000000     -2.671239000000000
C       0.508788000000000     -3.112635000000000     -3.201357000000000
C      -0.487517000000000      2.964587000000000     -3.215434000000000
C      -0.579216000000000     -2.451203000000000     -3.832230000000000
C      -1.564210000000000      3.390111000000000     -2.371228000000000
C      -1.929615000000000     -2.602657000000000     -3.332183000000000
C      -2.697841000000000      2.646584000000000     -2.286029000000000
C      -2.187774000000000     -3.421109000000000     -2.270611000000000
C      -3.538226000000000      2.578271000000000     -1.031567000000000
C      -3.358285000000000     -3.183424000000000     -1.323667000000000
C      -2.696952000000000      2.869693000000000      0.199624000000000
C      -2.765556000000000     -3.654068000000000     -0.015688000000000
C      -3.044327000000000      2.172749000000000      1.369090000000000
C      -3.096392000000000     -3.089304000000000      1.168769000000000
C      -2.150999000000000      2.048948000000000      2.427560000000000
C      -2.128017000000000     -3.006141000000000      2.225329000000000
C      -0.809584000000000      2.514710000000000      2.322929000000000
C      -0.773402000000000     -3.406295000000000      2.046948000000000
C       0.234308000000000      1.824151000000000      3.034340000000000
C       0.270170000000000     -2.703795000000000      2.779941000000000
C       1.558890000000000      1.925716000000000      2.601833000000000
C       3.264349000000000      0.423082000000000      1.621974000000000
C       3.269807000000000     -0.962774000000000      1.501974000000000
C       1.626023000000000     -2.680903000000000      2.253987000000000
C       1.873695000000000      2.830099000000000      1.573014000000000
C       3.468136000000000      1.242353000000000      0.510838000000000
C       3.463408000000000     -1.575961000000000      0.267026000000000
C       1.916842000000000     -3.360263000000000      1.101648000000000
C       3.712367000000000      0.643361000000000     -0.743830000000000
C       3.700064000000000     -0.771630000000000     -0.865582000000000
C       3.767585000000000      1.523802000000000     -2.001447000000000
C       3.704214000000000     -1.428563000000000     -2.252718000000000
C       3.060652000000000      0.828273000000000     -3.152562000000000
C       3.034653000000000     -0.521033000000000     -3.262121000000000
C       1.935313000000000      2.830409000000000     -2.871145000000000
C       1.770515000000000     -2.466011000000000     -3.287722000000000
C       1.950819000000000      1.609967000000000     -3.620988000000000
C       1.904441000000000     -1.161722000000000     -3.855163000000000
C      -0.505952000000000      1.727154000000000     -3.906177000000000
C      -0.459736000000000     -1.124149000000000     -4.322738000000000
C      -1.736911000000000      0.966791000000000     -3.841803000000000
C      -1.718716000000000     -0.438728000000000     -4.080186000000000
C      -2.787717000000000      1.433351000000000     -3.017906000000000
C      -2.615602000000000     -1.333321000000000     -3.456570000000000
C      -3.596073000000000      0.510516000000000     -2.260621000000000
C      -3.475175000000000     -0.886764000000000     -2.398663000000000
C      -3.954876000000000      1.102785000000000     -1.032199000000000
C      -3.741493000000000     -1.700743000000000     -1.246895000000000
C      -4.154407000000000      0.329023000000000      0.095111000000000
C      -4.064681000000000     -1.100589000000000     -0.017982000000000
C      -4.104872000000000      1.059039000000000      1.427437000000000
C      -4.099245000000000     -1.948402000000000      1.263323000000000
C      -3.553003000000000      0.184092000000000      2.526239000000000
C      -3.554653000000000     -1.177343000000000      2.453584000000000
C      -2.485858000000000      0.864503000000000      3.202352000000000
C      -2.470551000000000     -1.901488000000000      3.047988000000000
C      -1.506383000000000      0.187680000000000      3.876767000000000
C      -1.459699000000000     -1.232875000000000      3.754294000000000
C      -0.116807000000000      0.747978000000000      4.055809000000000
C      -0.108800000000000     -1.662917000000000      3.651797000000000
C       2.603086000000000      0.864261000000000      2.920309000000000
C       2.623515000000000     -1.625283000000000      2.705812000000000
C       0.740504000000000     -0.492955000000000      3.841386000000000
C       1.985772000000000     -0.432767000000000      3.366098000000000
C       0.764521000000000      1.025486000000000     -4.124274000000000
C       0.766218000000000     -0.417738000000000     -4.290341000000000
Cl     -4.989290000000000      3.707158000000000     -1.123650000000000
Cl     -1.632781000000000      5.942953000000000     -1.193821000000000
Cl     -5.772405000000000      1.712383000000000      1.882865000000000
Cl     -5.817473000000000     -2.542828000000000      1.567743000000000
Cl     -4.819641000000000     -4.191208000000000     -1.841665000000000
Cl      4.562226000000000      3.652971000000000      1.327361000000000
Cl      5.520559000000000      1.942038000000000     -2.382373000000000
Cl      5.424116000000000     -1.878848000000000     -2.726451000000000
Cl      3.828300000000000      1.499797000000000      4.146886000000000
Cl      0.099440000000000      1.428590000000000      5.768894000000000
Cl      4.557545000000000     -4.104000000000000      0.564979000000000
Cl      3.896874000000000     -2.397598000000000      3.823280000000000
