74

C      -3.628260000000000     -1.516929000000000      0.302070000000000
C      -3.531298000000000     -0.176328000000000      1.186523000000000
C      -3.361041000000000      1.026830000000000      0.165391000000000
C      -3.506259000000000     -1.066175000000000     -1.212055000000000
C      -3.155183000000000      0.374741000000000     -1.155500000000000
C      -2.335040000000000     -1.855704000000000     -1.746166000000000
C      -2.437369000000000     -2.421052000000000      0.479671000000000
C      -1.868066000000000     -2.754384000000000     -0.787782000000000
C      -1.644373000000000     -2.448663000000000      1.616489000000000
C      -2.280630000000000     -0.109179000000000      2.009193000000000
C      -1.559047000000000     -1.215152000000000      2.438076000000000
C      -2.049824000000000      1.683766000000000      0.572196000000000
C      -1.564974000000000      1.118032000000000      1.755003000000000
C      -1.169125000000000      2.283321000000000     -0.319873000000000
C      -2.294490000000000      0.895217000000000     -2.037544000000000
C      -1.552384000000000      2.213841000000000     -1.801897000000000
C      -1.439572000000000     -1.335670000000000     -2.720616000000000
C      -1.534655000000000      0.063145000000000     -2.954924000000000
C      -0.159042000000000     -1.999660000000000     -2.945037000000000
C      -0.590459000000000     -3.397140000000000     -0.910399000000000
C       0.251677000000000     -3.088136000000000     -2.055376000000000
C      -0.488384000000000     -3.288494000000000      1.556201000000000
C      -0.015873000000000     -3.833626000000000      0.292892000000000
C       0.630401000000000     -3.085737000000000      2.382364000000000
C      -0.325945000000000     -0.952797000000000      3.101064000000000
C       0.712867000000000     -1.873499000000000      3.119021000000000
C      -0.246878000000000      1.346841000000000      2.175093000000000
C       0.232511000000000      0.457650000000000      3.296238000000000
C       0.157615000000000      2.560964000000000      0.092725000000000
C       0.604014000000000      2.123746000000000      1.371450000000000
C       1.143905000000000      3.131167000000000     -0.927294000000000
C      -0.327043000000000      2.038385000000000     -2.658712000000000
C      -0.414752000000000      0.805326000000000     -3.397736000000000
C       0.889616000000000      2.523575000000000     -2.301687000000000
C       0.852525000000000     -1.276551000000000     -3.621340000000000
C       0.739476000000000      0.146797000000000     -3.814507000000000
C       2.253881000000000     -1.564023000000000     -3.429648000000000
C       1.629729000000000     -3.405249000000000     -1.952012000000000
C       2.638610000000000     -2.618306000000000     -2.624579000000000
C       1.398210000000000     -4.050785000000000      0.404812000000000
C       1.819951000000000     -3.576886000000000      1.703204000000000
C       2.203503000000000     -3.859394000000000     -0.707671000000000
C       3.032366000000000     -2.922134000000000      1.835530000000000
C       1.989774000000000     -1.178925000000000      3.235747000000000
C       1.724490000000000      0.224436000000000      3.228336000000000
C       3.128137000000000     -1.700701000000000      2.634640000000000
C       2.063969000000000      2.293087000000000      1.794496000000000
C       2.561987000000000      1.068937000000000      2.557201000000000
C       2.563035000000000      2.671603000000000     -0.651639000000000
C       2.987877000000000      2.305813000000000      0.591404000000000
C       2.087731000000000      1.907759000000000     -2.800204000000000
C       2.021672000000000      0.750452000000000     -3.585798000000000
C       2.982987000000000     -0.308244000000000     -3.386124000000000
C       3.124273000000000      2.040973000000000     -1.812532000000000
C       4.031756000000000     -0.149593000000000     -2.487816000000000
C       4.113261000000000      1.058107000000000     -1.686161000000000
C       3.787820000000000     -2.487936000000000     -1.750498000000000
C       3.513919000000000     -3.253949000000000     -0.558171000000000
C       3.909733000000000     -2.770160000000000      0.691508000000000
C       4.452836000000000     -1.264004000000000     -1.660889000000000
C       4.042654000000000     -0.812855000000000      1.979093000000000
C       3.745415000000000      0.553976000000000      1.935131000000000
C       4.011645000000000      1.314054000000000      0.738996000000000
C       4.576685000000000      0.694639000000000     -0.379272000000000
C       4.553911000000000     -1.475958000000000      0.790158000000000
C       4.816582000000000     -0.739489000000000     -0.359849000000000
Cl     -5.072214000000000     -2.539885000000000      0.662189000000000
Cl     -4.903044000000000      0.027611000000000      2.353190000000000
Cl     -4.715266000000000      2.242727000000000      0.133517000000000
Cl     -2.518996000000000      3.678530000000000     -2.338633000000000
Cl      1.021701000000000      4.976433000000000     -0.938393000000000
Cl      2.217532000000000      3.834216000000000      2.799281000000000
Cl     -4.998935000000000     -1.337400000000000     -2.256043000000000
Cl     -0.267145000000000      1.172927000000000      4.938793000000000
