75

C      -3.260395000000000      1.664656000000000      0.041834000000000
C      -3.675274000000000      0.435782000000000     -0.847204000000000
C      -3.778973000000000     -0.830301000000000      0.150359000000000
C      -2.680268000000000      0.959072000000000      1.210212000000000
C      -3.007267000000000     -0.327292000000000      1.325367000000000
C      -1.450663000000000      1.529126000000000      1.664069000000000
C      -2.030570000000000      2.599394000000000     -0.430292000000000
C      -0.995749000000000      2.426447000000000      0.707250000000000
C      -1.306704000000000      2.163355000000000     -1.695413000000000
C      -2.559712000000000      0.038112000000000     -1.745897000000000
C      -1.678276000000000      0.962154000000000     -2.387195000000000
C      -2.947971000000000     -2.008069000000000     -0.570718000000000
C      -2.275871000000000     -1.299142000000000     -1.703797000000000
C      -1.838471000000000     -2.663113000000000      0.261328000000000
C      -2.295209000000000     -1.176561000000000      2.285009000000000
C      -1.681400000000000     -2.378583000000000      1.597846000000000
C      -0.579126000000000      0.771455000000000      2.476504000000000
C      -1.042268000000000     -0.517914000000000      2.874314000000000
C       0.817475000000000      1.079234000000000      2.416069000000000
C       0.376423000000000      2.650372000000000      0.565007000000000
C       1.282522000000000      2.014038000000000      1.466605000000000
C      -0.033151000000000      2.668638000000000     -1.886063000000000
C       0.828529000000000      3.262650000000000     -0.752497000000000
C       0.833471000000000      2.128511000000000     -2.879378000000000
C      -0.789674000000000      0.394443000000000     -3.311753000000000
C       0.446515000000000      1.029844000000000     -3.642945000000000
C      -1.185047000000000     -1.869537000000000     -2.420564000000000
C      -0.581567000000000     -1.033428000000000     -3.370149000000000
C      -0.735563000000000     -3.327411000000000     -0.445854000000000
C      -0.442767000000000     -2.979405000000000     -1.842140000000000
C       0.324767000000000     -3.855313000000000      0.322651000000000
C      -0.474729000000000     -2.695125000000000      2.298734000000000
C      -0.073085000000000     -1.546186000000000      3.083092000000000
C       0.476375000000000     -3.499054000000000      1.712544000000000
C       1.771559000000000      0.180650000000000      3.200254000000000
C       1.262955000000000     -1.254378000000000      3.236094000000000
C       3.103011000000000      0.018034000000000      2.499948000000000
C       2.790254000000000      2.198324000000000      1.254914000000000
C       3.571245000000000      0.944616000000000      1.617599000000000
C       2.212971000000000      2.791904000000000     -1.137301000000000
C       2.211625000000000      2.253819000000000     -2.461014000000000
C       3.120928000000000      2.347878000000000     -0.222109000000000
C       3.159015000000000      1.308414000000000     -2.854245000000000
C       1.414726000000000      0.012394000000000     -3.995120000000000
C       0.759668000000000     -1.266592000000000     -3.831449000000000
C       2.748960000000000      0.154050000000000     -3.636638000000000
C       0.842804000000000     -3.234286000000000     -2.364830000000000
C       1.455295000000000     -2.360075000000000     -3.349202000000000
C       1.657767000000000     -4.024136000000000     -0.208829000000000
C       1.911865000000000     -3.739001000000000     -1.535243000000000
C       1.876048000000000     -3.283840000000000      1.988844000000000
C       2.247871000000000     -2.142322000000000      2.714292000000000
C       3.400345000000000     -1.372277000000000      2.305164000000000
C       2.621183000000000     -3.652580000000000      0.812276000000000
C       4.178426000000000     -1.794408000000000      1.226202000000000
C       3.774435000000000     -2.957580000000000      0.455346000000000
C       4.389967000000000      0.530891000000000      0.516694000000000
C       4.110555000000000      1.387878000000000     -0.610321000000000
C       4.149141000000000      0.875451000000000     -1.909114000000000
C       4.702504000000000     -0.815183000000000      0.315848000000000
C       3.496293000000000     -0.993715000000000     -3.164815000000000
C       2.867199000000000     -2.238759000000000     -3.049383000000000
C       3.151428000000000     -3.094354000000000     -1.922979000000000
C       4.054029000000000     -2.683256000000000     -0.938669000000000
C       4.387341000000000     -0.544428000000000     -2.113391000000000
C       4.659228000000000     -1.369182000000000     -1.027205000000000
Cl     -4.697295000000000      2.588567000000000      0.629854000000000
Cl     -5.119438000000000      0.715151000000000     -1.892035000000000
Cl     -5.451354000000000     -1.275165000000000      0.635878000000000
Cl     -4.011764000000000     -3.354467000000000     -1.227210000000000
Cl     -2.524930000000000      4.336541000000000     -0.661084000000000
Cl      0.833132000000000      5.107045000000000     -0.667734000000000
Cl      3.347148000000000      3.659406000000000      2.238468000000000
Cl      1.977737000000000      0.882479000000000      4.909356000000000
Cl     -3.428635000000000     -1.702427000000000      3.679722000000000
