74

C       3.412674000000000     -1.766547000000000     -0.549203000000000
C       3.233141000000000     -0.746359000000000     -1.762718000000000
C       3.219564000000000      0.713911000000000     -1.133039000000000
C       3.504691000000000     -0.892495000000000      0.773227000000000
C       3.160259000000000      0.494329000000000      0.340841000000000
C       2.381321000000000     -1.413184000000000      1.653662000000000
C       2.180124000000000     -2.599258000000000     -0.310854000000000
C       1.783049000000000     -2.556630000000000      1.031827000000000
C       1.251057000000000     -2.955840000000000     -1.312587000000000
C       1.872094000000000     -0.849317000000000     -2.397855000000000
C       1.086978000000000     -2.003647000000000     -2.430396000000000
C       1.889351000000000      1.300832000000000     -1.569711000000000
C       1.247535000000000      0.416807000000000     -2.468969000000000
C       1.141138000000000      2.163725000000000     -0.805803000000000
C       2.476774000000000      1.309287000000000      1.129418000000000
C       1.696127000000000      2.502809000000000      0.584695000000000
C       1.660012000000000     -0.627265000000000      2.504271000000000
C       1.985776000000000      0.875251000000000      2.502105000000000
C       0.390173000000000     -1.118312000000000      3.040424000000000
C       0.532269000000000     -3.064429000000000      1.471773000000000
C      -0.150427000000000     -2.390750000000000      2.560645000000000
C       0.119627000000000     -3.671419000000000     -0.881849000000000
C      -0.202206000000000     -3.793551000000000      0.511783000000000
C      -1.138262000000000     -3.656419000000000     -1.613802000000000
C      -0.210238000000000     -1.860957000000000     -2.995728000000000
C      -1.302202000000000     -2.763238000000000     -2.656980000000000
C      -0.123393000000000      0.573914000000000     -2.791347000000000
C      -0.777061000000000     -0.588193000000000     -3.260754000000000
C      -0.248071000000000      2.374591000000000     -1.137373000000000
C      -0.857264000000000      1.638963000000000     -2.156084000000000
C      -1.087146000000000      3.264757000000000     -0.214406000000000
C       0.582961000000000      2.613806000000000      1.580410000000000
C       0.749254000000000      1.706143000000000      2.649458000000000
C      -0.670025000000000      3.056906000000000      1.233041000000000
C      -0.504580000000000     -0.194882000000000      3.615362000000000
C      -0.340257000000000      1.241142000000000      3.347430000000000
C      -1.910105000000000     -0.445487000000000      3.671289000000000
C      -1.534085000000000     -2.656412000000000      2.723534000000000
C      -2.423638000000000     -1.671655000000000      3.253932000000000
C      -1.628471000000000     -3.956126000000000      0.638267000000000
C      -2.221831000000000     -3.874882000000000     -0.678360000000000
C      -2.277020000000000     -3.423609000000000      1.736052000000000
C      -3.446447000000000     -3.234400000000000     -0.844565000000000
C      -2.552186000000000     -2.053034000000000     -2.805273000000000
C      -2.226320000000000     -0.698645000000000     -3.179907000000000
C      -3.617604000000000     -2.298665000000000     -1.938804000000000
C      -2.360453000000000      1.721227000000000     -2.423343000000000
C      -2.971721000000000      0.352551000000000     -2.716141000000000
C      -2.544677000000000      2.832375000000000     -0.173674000000000
C      -3.134027000000000      2.142658000000000     -1.190335000000000
C      -1.784191000000000      2.684587000000000      2.023011000000000
C      -1.626684000000000      1.800093000000000      3.101747000000000
C      -2.621455000000000      0.778197000000000      3.343339000000000
C      -2.952734000000000      2.585856000000000      1.178467000000000
C      -3.775956000000000      0.726630000000000      2.576294000000000
C      -3.952920000000000      1.659896000000000      1.471323000000000
C      -3.677229000000000     -1.732637000000000      2.527500000000000
C      -3.587368000000000     -2.825070000000000      1.584069000000000
C      -4.148331000000000     -2.705137000000000      0.311321000000000
C      -4.327351000000000     -0.552070000000000      2.170238000000000
C      -4.412227000000000     -1.195585000000000     -1.461884000000000
C      -4.085400000000000      0.108630000000000     -1.854083000000000
C      -4.179546000000000      1.200920000000000     -0.913255000000000
C      -4.596473000000000      0.958620000000000      0.398168000000000
C      -4.772054000000000     -1.456466000000000     -0.078784000000000
C      -4.858101000000000     -0.404733000000000      0.829202000000000
Cl      4.774448000000000     -2.937452000000000     -0.759505000000000
Cl      4.429244000000000     -0.960395000000000     -3.100445000000000
Cl      4.612003000000000      1.783941000000000     -1.584550000000000
Cl      2.712644000000000      4.040309000000000      0.558580000000000
Cl     -0.913226000000000      5.021890000000000     -0.755205000000000
Cl     -2.647315000000000      2.882658000000000     -3.843944000000000
Cl      5.098916000000000     -0.930683000000000      1.638528000000000
Cl      3.202152000000000      1.298989000000000      3.837036000000000
