90

C       0.152739000000000     -2.026139000000000     -3.490564000000000
C       4.274709000000000     -0.520103000000000     -2.383156000000000
C      -0.527562000000000      0.384922000000000      3.896632000000000
C       3.844635000000000      0.971503000000000      2.731847000000000
C      -0.089206000000000     -0.650514000000000     -3.708895000000000
C       3.694672000000000     -1.821148000000000     -2.521743000000000
C      -0.581285000000000      1.764632000000000      3.512937000000000
C       3.117288000000000     -0.075588000000000      3.396205000000000
C       1.056464000000000      0.244509000000000     -3.814872000000000
C       3.685602000000000     -2.750517000000000     -1.455418000000000
C       3.207024000000000     -1.417693000000000      2.988235000000000
C       0.596354000000000      2.496570000000000      3.206794000000000
C       2.354735000000000     -0.315571000000000     -3.713353000000000
C       1.820553000000000      1.845269000000000      3.497606000000000
C       2.552818000000000     -1.689870000000000     -3.412837000000000
C       1.874638000000000      0.483461000000000      3.887237000000000
C       1.458011000000000     -2.524761000000000     -3.278506000000000
C       0.706447000000000     -0.310537000000000      3.998862000000000
C       1.436214000000000     -3.534717000000000     -2.221001000000000
C       0.766744000000000     -1.710046000000000      3.622210000000000
C       0.091085000000000     -3.715149000000000     -1.832150000000000
C      -0.457658000000000     -2.303134000000000      3.217687000000000
C      -0.742534000000000     -2.824785000000000     -2.647748000000000
C      -1.683507000000000     -1.569414000000000      3.105228000000000
C      -1.930956000000000     -2.370807000000000     -2.223625000000000
C      -1.721000000000000     -0.256971000000000      3.441434000000000
C      -2.447857000000000     -1.034328000000000     -2.684106000000000
C      -2.650899000000000      0.737835000000000      2.775546000000000
C      -1.377955000000000     -0.132359000000000     -3.290699000000000
C      -1.812469000000000      1.995724000000000      2.825206000000000
C      -1.515544000000000      1.212742000000000     -3.098884000000000
C      -1.872241000000000      2.946627000000000      1.863247000000000
C      -0.402396000000000      2.109405000000000     -3.236663000000000
C      -0.707736000000000      3.727695000000000      1.551432000000000
C       0.910142000000000      1.653190000000000     -3.502583000000000
C       0.556910000000000      3.499124000000000      2.157738000000000
C       2.036186000000000      2.422735000000000     -2.962113000000000
C       1.768848000000000      3.789049000000000      1.385808000000000
C       3.310279000000000      1.751941000000000     -2.709175000000000
C       4.857352000000000      1.246754000000000     -0.820038000000000
C       4.748099000000000      1.656932000000000      0.585488000000000
C       3.017473000000000      3.073626000000000      1.693868000000000
C       3.449990000000000      0.415015000000000     -3.112263000000000
C       4.921374000000000     -0.126192000000000     -1.176561000000000
C       4.681628000000000      0.683371000000000      1.618486000000000
C       3.027499000000000      2.149360000000000      2.756765000000000
C       4.998315000000000     -1.091691000000000     -0.134110000000000
C       4.859285000000000     -0.682256000000000      1.269889000000000
C       4.422763000000000     -2.375164000000000     -0.282579000000000
C       4.184390000000000     -1.710938000000000      1.971749000000000
C       2.520217000000000     -3.638096000000000     -1.296067000000000
C       2.019003000000000     -2.275050000000000      3.112158000000000
C       2.165893000000000     -4.080091000000000      0.001241000000000
C       1.939494000000000     -3.398178000000000      2.260255000000000
C       2.881639000000000     -3.599611000000000      1.170024000000000
C       3.972641000000000     -2.786739000000000      1.033567000000000
C      -0.277558000000000     -4.003015000000000     -0.493132000000000
C      -0.493869000000000     -3.352812000000000      2.247432000000000
C      -1.522718000000000     -3.453524000000000      0.033631000000000
C      -1.620692000000000     -3.176619000000000      1.375670000000000
C      -2.516921000000000     -2.777588000000000     -0.893900000000000
C      -2.552097000000000     -2.133610000000000      1.997929000000000
C      -2.920675000000000     -1.414178000000000     -0.354476000000000
C      -2.898353000000000     -1.046067000000000      0.990075000000000
C      -2.916641000000000     -0.450787000000000     -1.359466000000000
C      -2.916359000000000      0.325377000000000      1.321121000000000
C      -2.923645000000000      0.908576000000000     -1.056828000000000
C      -2.945402000000000      1.307707000000000      0.296696000000000
C      -2.586868000000000      1.852854000000000     -2.200282000000000
C      -2.770293000000000      2.792972000000000      0.647000000000000
C      -1.878639000000000      3.086975000000000     -1.705503000000000
C      -1.963751000000000      3.516631000000000     -0.415015000000000
C      -0.661409000000000      3.271371000000000     -2.445816000000000
C      -0.825731000000000      4.157341000000000      0.192567000000000
C       0.405638000000000      3.980389000000000     -1.910228000000000
C       0.322120000000000      4.431270000000000     -0.535608000000000
C       1.742597000000000      3.571378000000000     -2.187102000000000
C       1.608636000000000      4.285353000000000      0.071230000000000
C       4.130200000000000      2.172811000000000     -1.605392000000000
C       3.977486000000000      2.844943000000000      0.650010000000000
C       2.517633000000000      3.883873000000000     -0.995186000000000
C       3.666175000000000      3.206515000000000     -0.712352000000000
C       0.800865000000000     -4.255928000000000      0.390236000000000
C       0.685943000000000     -3.895602000000000      1.784197000000000
Cl     -4.007576000000000     -3.872468000000000     -1.117567000000000
Cl     -4.094313000000000     -2.916044000000000      2.644309000000000
Cl     -4.243558000000000      0.914110000000000      3.682396000000000
Cl     -4.431465000000000      3.563220000000000      0.883082000000000
Cl     -4.110188000000000      2.303387000000000     -3.140167000000000
Cl     -3.848788000000000     -1.255889000000000     -3.888469000000000
