92

C      -1.141600000000000      3.344778000000000     -3.131255000000000
C      -3.125308000000000     -0.807826000000000     -2.422462000000000
C       2.220313000000000      0.827873000000000      3.733819000000000
C      -0.868799000000000     -2.495395000000000      2.620419000000000
C      -0.062901000000000      2.569370000000000     -3.621179000000000
C      -3.511764000000000      0.644464000000000     -2.309578000000000
C       3.094535000000000     -0.020312000000000      3.028991000000000
C      -0.828039000000000     -1.284327000000000      3.523800000000000
C      -0.298560000000000      1.145620000000000     -3.885025000000000
C      -4.027918000000000      1.179686000000000     -1.167270000000000
C      -1.818794000000000     -0.355659000000000      3.535013000000000
C       2.652655000000000     -1.274987000000000      2.507716000000000
C      -1.591084000000000      0.626871000000000     -3.645291000000000
C       1.382732000000000     -1.707546000000000      2.952718000000000
C      -2.662420000000000      1.437482000000000     -3.153421000000000
C       0.525162000000000     -0.883413000000000      3.759345000000000
C      -2.430074000000000      2.779756000000000     -2.883670000000000
C       0.879682000000000      0.446082000000000      4.070013000000000
C      -2.965636000000000      3.347027000000000     -1.666869000000000
C      -0.172866000000000      1.448898000000000      4.050664000000000
C      -2.002529000000000      4.260287000000000     -1.126233000000000
C       0.150363000000000      2.781728000000000      3.660110000000000
C      -0.931149000000000      4.351867000000000     -2.104181000000000
C       1.506976000000000      3.127719000000000      3.274070000000000
C       0.339428000000000      4.684415000000000     -1.713823000000000
C       2.506725000000000      2.195992000000000      3.317264000000000
C       1.472632000000000      4.060731000000000     -2.338820000000000
C       3.531545000000000      2.169674000000000      2.289554000000000
C       1.285638000000000      3.009344000000000     -3.282697000000000
C       3.966846000000000      0.815145000000000      2.204263000000000
C       2.344502000000000      2.089922000000000     -3.393682000000000
C       4.497718000000000      0.333109000000000      1.041929000000000
C       2.114861000000000      0.706994000000000     -3.773973000000000
C       4.401732000000000     -1.137260000000000      0.659038000000000
C       0.798191000000000      0.194378000000000     -3.869988000000000
C       3.138565000000000     -1.777163000000000      1.247066000000000
C       0.560915000000000     -1.181605000000000     -3.449524000000000
C       2.328960000000000     -2.621968000000000      0.480016000000000
C      -0.769014000000000     -1.598645000000000     -3.063709000000000
C      -1.886071000000000     -2.412076000000000     -1.000498000000000
C      -1.341597000000000     -2.823994000000000      0.210582000000000
C       1.029634000000000     -3.021982000000000      0.944534000000000
C      -1.806365000000000     -0.721408000000000     -3.206686000000000
C      -2.863869000000000     -1.420802000000000     -1.054397000000000
C      -1.752772000000000     -2.245541000000000      1.410982000000000
C       0.595673000000000     -2.593634000000000      2.180702000000000
C      -3.324608000000000     -0.848905000000000      0.149891000000000
C      -2.760673000000000     -1.259985000000000      1.387024000000000
C      -4.258471000000000      0.369363000000000      0.094502000000000
C      -3.060742000000000     -0.473898000000000      2.670948000000000
C      -3.874934000000000      1.371343000000000      1.170248000000000
C      -3.327962000000000      0.979414000000000      2.344704000000000
C      -3.711241000000000      2.540369000000000     -0.820373000000000
C      -1.495393000000000      1.023681000000000      3.769986000000000
C      -3.518244000000000      2.637304000000000      0.594178000000000
C      -2.395395000000000      1.834574000000000      3.007821000000000
C      -1.731409000000000      4.325934000000000      0.261094000000000
C      -0.714817000000000      3.550688000000000      2.847501000000000
C      -0.380489000000000      4.725269000000000      0.665707000000000
C       0.093459000000000      4.363609000000000      1.945011000000000
C       0.627235000000000      4.921598000000000     -0.323090000000000
C       1.467424000000000      4.081737000000000      2.190057000000000
C       1.984360000000000      4.529580000000000     -0.108833000000000
C       2.425893000000000      4.033147000000000      1.132469000000000
C       2.510486000000000      4.002602000000000     -1.359734000000000
C       3.477525000000000      3.012394000000000      1.152134000000000
C       3.490589000000000      2.989795000000000     -1.376495000000000
C       4.009235000000000      2.491037000000000     -0.099614000000000
C       3.475209000000000      2.130200000000000     -2.515301000000000
C       4.559507000000000      1.177550000000000     -0.094467000000000
C       4.013255000000000      0.796508000000000     -2.453468000000000
C       4.537542000000000      0.325960000000000     -1.264841000000000
C       3.181647000000000     -0.070019000000000     -3.246258000000000
C       4.341810000000000     -1.041515000000000     -0.848720000000000
C       2.935734000000000     -1.373107000000000     -2.796857000000000
C       3.555552000000000     -1.867540000000000     -1.591722000000000
C       1.646564000000000     -1.930219000000000     -2.933329000000000
C       2.695293000000000     -2.945109000000000     -0.970655000000000
C      -0.992164000000000     -2.802739000000000     -2.163562000000000
C      -0.032819000000000     -3.578137000000000      0.006947000000000
C       1.457440000000000     -2.895072000000000     -1.856202000000000
C       0.243399000000000     -3.251157000000000     -1.432559000000000
C      -2.530005000000000      3.484973000000000      1.159737000000000
C      -1.989131000000000      3.078125000000000      2.444750000000000
Cl     -1.420292000000000     -4.002152000000000      3.526824000000000
Cl     -0.248961000000000     -5.395372000000000      0.284325000000000
Cl      3.505434000000000     -4.602424000000000     -1.043762000000000
Cl      5.891216000000000     -2.078965000000000      1.240613000000000
Cl     -4.454147000000000     -1.266704000000000      3.578244000000000
Cl     -6.009703000000000     -0.191072000000000      0.237054000000000
Cl     -4.414308000000000     -1.766091000000000     -3.329094000000000
Cl     -1.707186000000000     -4.214758000000000     -3.144913000000000
