68

C       0.257050661965812     -0.011605985452402     -3.857888277414058
C       0.294338599307665      1.543355508422521     -3.549557456769884
C      -0.972052690117063      1.759231986438026     -2.779942859765669
C      -1.081774583261560     -0.475463724763073     -3.334446264037859
C      -1.819358273697891      0.619215140802231     -2.820513232744268
C      -1.317128043048784     -1.667022458047088     -2.678742673508677
C      -0.326848193255883     -2.763867669342251     -2.537521444297095
C       1.236075212270651     -0.852562943146548     -3.120859080945096
C       0.991468198642315     -2.083122041798739     -2.592168479725879
C       2.385103119186747     -0.274325351936320     -2.448161262548744
C       1.583023818517847      2.096189728675239     -2.830059599960601
C       2.486851734460767      1.057852468724866     -2.219424423965171
C       1.304049888988517      2.937965681241554     -1.602207044140573
C      -1.117200053451240      2.717474262487242     -1.822576459364639
C       0.058587496460548      3.320246406219336     -1.195954276074020
C      -2.126707127752411      2.548689346114100     -0.828193868523781
C      -2.788872457133668      0.471261064032522     -1.851585211321797
C      -2.972346063996667      1.439418492909811     -0.846499622086473
C      -1.979753663305389     -1.833950114331702     -1.428814965619258
C      -3.159062641291029     -0.901413918433576     -1.310382981938129
C      -0.839007326666316     -2.916838638404410     -1.116513992655902
C      -2.201592063864701     -3.080713409471049     -0.705470181533819
C       0.207136020166060     -3.549645912364147     -0.226376581899994
C       1.946546699540274     -2.334352916721958     -1.530974308646170
C       2.833912977232923     -1.221606934191031     -1.463647367669336
C       1.570669643583256     -2.959574541677516     -0.392906951491755
C       3.375445273598566     -0.801849979256369     -0.275490613296513
C       3.007595202984207      1.503906157708916     -0.961214391203682
C       2.265042575190856      2.657972936295169     -0.573043100367895
C       3.454450161377990      0.601799272020957     -0.008517045520558
C       1.984400539351280      2.852915002687741      0.776697278058086
C      -0.262324562451379      3.507696332449683      0.188717801259421
C      -1.616501984129750      3.053045425316751      0.402433063997546
C       0.682298791893681      3.292805848186527      1.174210231521472
C      -1.959851211473851      2.419151727629436      1.594197435107102
C      -3.335378879700203      0.801108481959154      0.372632696129932
C      -3.447619628739562     -0.602726829581671      0.139699585156434
C      -2.839246041191929      1.280031066154261      1.564290267662504
C      -2.540664656219276     -2.900619229457327      0.784338522033374
C      -3.076986162352906     -1.516411718562676      1.060741103832677
C      -0.032873955246868     -3.246251941243656      1.219155661349427
C      -1.272506074569453     -2.870509327777632      1.588149847245770
C       2.137494841574163     -2.558931142103880      0.857887718550290
C       3.014447783896893     -1.485059528448534      0.920595388779250
C       1.130347527265742     -2.706880051600121      1.842140323482897
C       3.170750318731389      0.805055979267196      1.379344176163693
C       2.442910018915524      1.915369460506765      1.771171955500924
C       2.900071903746866     -0.494570910010913      1.960033046737852
C       0.329517918144207      2.628148760885492      2.409051006284558
C      -0.973262295129901      2.201068982723366      2.612987037842684
C       1.419688216203485      1.771910349507826      2.787777157140953
C      -2.396582024710107      0.334045134667201      2.539174871351980
C      -2.492746028424128     -1.025998577879969      2.282386607639352
C      -1.398883371110765     -1.867493654868308      2.609496042770566
C      -1.246227838850495      0.900700934361626      3.176368753572504
C       1.020086605165453     -1.762076210279578      2.846177547043256
C       1.907514865485077     -0.629493612400897      2.912006546438649
C       1.156287389815752      0.526153090819349      3.335545034023212
C      -0.281688176988391     -1.327098965973480      3.223903838569019
C      -0.196112099356682      0.074715639006908      3.524890846346931
Cl      0.510628200920322     -0.376814857055565     -5.601142956291526
Cl      0.200943141461011     -5.344809241942725     -0.535755584705518
Cl     -0.020794809192373      2.495557393445837     -5.046031036933941
Cl     -3.674357538420164     -4.133331835472924      1.426674819872086
Cl     -0.393339526170218     -4.141890597181095     -3.653627023531777
Cl      2.633529683934497      2.973649898498895     -4.020934958694560
Cl     -4.607750988334950     -1.572027339625030     -2.131567908969333
Cl     -3.210659797217959     -4.229621689297177     -1.493032996653547
