74

C       3.460385000000000     -0.063833000000000     -1.313255000000000
C       3.237302000000000      1.415746000000000     -0.749514000000000
C       3.138644000000000      1.265421000000000      0.825630000000000
C       3.589550000000000     -1.039425000000000     -0.074047000000000
C       3.071469000000000     -0.207530000000000      1.048531000000000
C       2.634378000000000     -2.293124000000000     -0.403794000000000
C       2.228561000000000     -0.563067000000000     -1.996366000000000
C       1.864427000000000     -1.820301000000000     -1.592827000000000
C       1.338905000000000      0.257849000000000     -2.754003000000000
C       1.881467000000000      1.978296000000000     -1.107556000000000
C       1.131667000000000      1.616723000000000     -2.282945000000000
C       1.776800000000000      1.844859000000000      1.178410000000000
C       1.185047000000000      2.405055000000000      0.007825000000000
C       0.984827000000000      1.388606000000000      2.191485000000000
C       2.308688000000000     -0.706638000000000      2.013089000000000
C       1.499811000000000      0.175472000000000      2.966370000000000
C       1.620881000000000     -2.668745000000000      0.675442000000000
C       1.670945000000000     -2.012749000000000      1.895250000000000
C       0.399252000000000     -3.356399000000000      0.299443000000000
C       0.653503000000000     -2.439098000000000     -2.015043000000000
C      -0.069309000000000     -3.307784000000000     -1.096546000000000
C       0.286919000000000     -0.413494000000000     -3.386782000000000
C      -0.024933000000000     -1.788174000000000     -3.058349000000000
C      -0.945184000000000      0.249929000000000     -3.700242000000000
C      -0.127568000000000      2.184710000000000     -2.444821000000000
C      -1.149967000000000      1.529650000000000     -3.178669000000000
C      -0.210434000000000      2.742844000000000     -0.019919000000000
C      -0.764952000000000      3.089933000000000     -1.387825000000000
C      -0.425635000000000      1.750328000000000      2.225097000000000
C      -0.986381000000000      2.489267000000000      1.084695000000000
C      -1.293387000000000      1.033095000000000      3.051327000000000
C       0.381054000000000     -0.743304000000000      3.366180000000000
C       0.576225000000000     -2.043327000000000      2.812056000000000
C      -0.892410000000000     -0.277379000000000      3.566254000000000
C      -0.578757000000000     -3.565256000000000      1.305292000000000
C      -0.503817000000000     -2.882433000000000      2.566420000000000
C      -1.983236000000000     -3.723475000000000      0.998938000000000
C      -1.431754000000000     -3.540769000000000     -1.372841000000000
C      -2.403458000000000     -3.731154000000000     -0.315155000000000
C      -1.430317000000000     -1.987882000000000     -3.276376000000000
C      -2.015201000000000     -0.720586000000000     -3.660938000000000
C      -2.119557000000000     -2.861308000000000     -2.453519000000000
C      -3.270702000000000     -0.369002000000000     -3.178175000000000
C      -2.445746000000000      1.888957000000000     -2.637087000000000
C      -2.230519000000000      2.730071000000000     -1.498896000000000
C      -3.495992000000000      0.970896000000000     -2.663677000000000
C      -2.494512000000000      2.748740000000000      1.018266000000000
C      -3.027929000000000      2.597841000000000     -0.399027000000000
C      -2.719110000000000      0.948940000000000      2.760697000000000
C      -3.293252000000000      1.700353000000000      1.765551000000000
C      -2.018390000000000     -1.174977000000000      3.431765000000000
C      -1.829640000000000     -2.477330000000000      2.961671000000000
C      -2.764216000000000     -3.036961000000000      2.011666000000000
C      -3.157913000000000     -0.410068000000000      2.984890000000000
C      -3.905811000000000     -2.332636000000000      1.640266000000000
C      -4.116020000000000     -0.985818000000000      2.147968000000000
C      -3.638829000000000     -3.075735000000000     -0.691807000000000
C      -3.463569000000000     -2.538612000000000     -2.019926000000000
C      -4.016534000000000     -1.298304000000000     -2.352868000000000
C      -4.363847000000000     -2.363537000000000      0.266774000000000
C      -4.368449000000000      0.868224000000000     -1.527162000000000
C      -4.119991000000000      1.668800000000000     -0.411216000000000
C      -4.285558000000000      1.126245000000000      0.921151000000000
C      -4.703952000000000     -0.198799000000000      1.098505000000000
C      -4.719277000000000     -0.531710000000000     -1.343800000000000
C      -4.884338000000000     -1.050445000000000     -0.062842000000000
Cl      4.804827000000000     -0.221641000000000     -2.515327000000000
Cl      4.459306000000000      2.616768000000000     -1.319127000000000
Cl      4.463906000000000      2.054955000000000      1.779764000000000
Cl      2.475742000000000      0.665408000000000      4.458134000000000
Cl      5.291903000000000     -1.477649000000000      0.357213000000000
Cl      3.569806000000000     -3.814946000000000     -0.843361000000000
Cl     -2.800150000000000      4.443687000000000      1.706333000000000
Cl     -0.464289000000000      4.886706000000000     -1.738602000000000
