156

C      -1.236263400000000      0.000000000000000      3.329976400000000
C      -0.382026400000000     -1.175756400000000      3.329976400000000
C       1.000158100000000     -0.726657400000000      3.329976400000000
C       1.000158100000000      0.726657400000000      3.329976400000000
C      -0.382026400000000      1.175756400000000      3.329976400000000
C       2.344335600000000     -2.601457500000000      0.594642100000000
C       3.198572600000000     -1.425701100000000      0.594642100000000
C       2.962467300000000     -0.699043700000000      1.830905500000000
C       1.962309200000000     -1.425701100000000      2.594958300000000
C       1.580282800000000     -2.601457500000000      1.830905500000000
C       3.198572600000000      1.425701100000000      0.594642100000000
C       2.344335600000000      2.601457500000000      0.594642100000000
C       1.580282800000000      2.601457500000000      1.830905500000000
C       1.962309200000000      1.425701100000000      2.594958300000000
C       2.962467300000000      0.699043700000000      1.830905500000000
C      -0.367509000000000      3.482589200000000      0.594642100000000
C      -1.749693500000000      3.033490300000000      0.594642100000000
C      -1.985798800000000      2.306832900000000      1.830905500000000
C      -0.749535400000000      2.306832900000000      2.594958300000000
C       0.250622700000000      3.033490300000000      1.830905500000000
C      -3.425705700000000      0.726657400000000      0.594642100000000
C      -3.425705700000000     -0.726657400000000      0.594642100000000
C      -2.807574000000000     -1.175756400000000      1.830905500000000
C      -2.425547600000000      0.000000000000000      2.594958300000000
C      -2.807574000000000      1.175756400000000      1.830905500000000
C      -1.749693500000000     -3.033490300000000      0.594642100000000
C      -0.367509000000000     -3.482589200000000      0.594642100000000
C       0.250622700000000     -3.033490300000000      1.830905500000000
C      -0.749535400000000     -2.306832900000000      2.594958300000000
C      -1.985798800000000     -2.306832900000000      1.830905500000000
C      -0.250622700000000     -3.033490300000000     -1.830905500000000
C       0.749535400000000     -2.306832900000000     -2.594958300000000
C       1.985798800000000     -2.306832900000000     -1.830905500000000
C       1.749693500000000     -3.033490300000000     -0.594642100000000
C       0.367509000000000     -3.482589200000000     -0.594642100000000
C       2.807574000000000     -1.175756400000000     -1.830905500000000
C       2.425547600000000      0.000000000000000     -2.594958300000000
C       2.807574000000000      1.175756400000000     -1.830905500000000
C       3.425705700000000      0.726657400000000     -0.594642100000000
C       3.425705700000000     -0.726657400000000     -0.594642100000000
C       1.985798800000000      2.306832900000000     -1.830905500000000
C       0.749535400000000      2.306832900000000     -2.594958300000000
C      -0.250622700000000      3.033490300000000     -1.830905500000000
C       0.367509000000000      3.482589200000000     -0.594642100000000
C       1.749693500000000      3.033490300000000     -0.594642100000000
C      -1.580282800000000      2.601457500000000     -1.830905500000000
C      -1.962309200000000      1.425701100000000     -2.594958300000000
C      -2.962467300000000      0.699043700000000     -1.830905500000000
C      -3.198572600000000      1.425701100000000     -0.594642100000000
C      -2.344335600000000      2.601457500000000     -0.594642100000000
C      -2.962467300000000     -0.699043700000000     -1.830905500000000
C      -1.962309200000000     -1.425701100000000     -2.594958300000000
C      -1.580282800000000     -2.601457500000000     -1.830905500000000
C      -2.344335600000000     -2.601457500000000     -0.594642100000000
C      -3.198572600000000     -1.425701100000000     -0.594642100000000
C      -1.000158100000000     -0.726657400000000     -3.329976400000000
C      -1.000158100000000      0.726657400000000     -3.329976400000000
C       0.382026400000000      1.175756400000000     -3.329976400000000
C       1.236263400000000      0.000000000000000     -3.329976400000000
C       0.382026400000000     -1.175756400000000     -3.329976400000000
C      -1.760868152479977      0.000000000000000      4.788499575570214
F      -0.769118265312520      0.000000000000000      5.674689262546618
F      -2.509683867958250     -1.067943146804714      5.048638883337428
F      -2.509683867958251      1.067943146804714      5.048638883337428
C      -0.544138182493537     -1.674685160337223      4.788499578453168
F      -0.237671079047451     -0.731474811124619      5.674689259979422
F      -1.791209143019819     -2.056839099354529      5.048638745641837
F       0.240139681719549     -2.716863501523453      5.048639035029211
C       1.424572270379600     -1.035012337227138      4.788499572482579
F       0.622230114684808     -0.452075896827107      5.674689265296017
F       1.402655110619555     -2.339139281866804      5.048639055016206
F       2.658098361826506     -0.611171544254954      5.048638696668904
C       1.424572270379600      1.035012337227138      4.788499572482579
F       0.622230114684808      0.452075896827107      5.674689265296017
F       2.658098361826505      0.611171544254953      5.048638696668905
F       1.402655110619556      2.339139281866804      5.048639055016206
C       3.372040913348887     -3.729276726452439      0.867305961482758
F       4.065646473117289     -3.512659571446581      1.981257637102274
F       4.255699474576698     -3.847398385957912     -0.119656459648091
F       2.785803175585909     -4.915339440312262      1.003249161437800
C       4.588770841105216     -2.054591601470715      0.867305972905589
F       4.597092524835205     -2.781185206412829      1.981259510014351
F       4.974175195124164     -2.858501963155494     -0.119654823822978
F       5.535626696788588     -1.130532956306001      1.003245697984250
C       4.588770841105216      2.054591601470715      0.867305972905589
F       4.597092524835205      2.781185206412829      1.981259510014351
F       4.974175195124164      2.858501963155494     -0.119654823822978
F       5.535626696788588      1.130532956306001      1.003245697984250
C       3.372040913348887      3.729276726452439      0.867305961482758
F       4.065646473117289      3.512659571446581      1.981257637102274
F       4.255699474576698      3.847398385957912     -0.119656459648091
F       2.785803175585909      4.915339440312262      1.003249161437800
C      -0.536024505933608      4.999084161282813      0.867305916198225
F      -1.224486056509568      5.231528376155967      1.981258509601799
F      -1.181490641441573      5.614047738044458     -0.119655717893464
F       0.635402013527056      5.614047437648371      1.003247367661750
C      -4.920052270746602      1.035012329491514      0.867305929570692
F      -5.353866095886581      0.452075888304809      1.981258653277581
F      -5.704377421084056      0.611171530865854     -0.119655587393619
F      -5.142926451538784      2.339139273111785      1.003247146498691
C      -3.495480045493597      0.000000000000000      3.716450414140840
F      -4.731636214975104      0.000000000000000      3.225718384767569
F      -3.393275172649654     -1.067943146804710      4.502549389563025
F      -3.393275172649654      1.067943146804710      4.502549389563026
C      -0.536024505933608     -4.999084161282813      0.867305916198225
F      -1.224486056509568     -5.231528376155967      1.981258509601799
F      -1.181490641441573     -5.614047738044458     -0.119655717893464
F       0.635402013527056     -5.614047437648371      1.003247367661750
C       0.344409536241533     -4.359411448687088      2.628174047487054
F      -0.839925988839674     -4.952130692341265      2.750375775104312
F       1.155296365978919     -5.236322616674201      2.043033591854452
F       0.808297804007590     -4.168379895461680      3.859926709632054
C      -2.841030825190360     -3.324399111784273      2.628174079415870
F      -2.231274061848880     -4.500053407613876      2.750377460124917
F      -4.012486723036433     -3.557209292135253      2.043032644097369
F      -3.104040378809407     -2.897183783064881      3.859926098944270
C       4.039618202466739     -1.674685147758987     -2.628174079481060
F       4.969306600424023     -0.731474792441298     -2.750377632314432
F       3.714586666140234     -2.056839079908342     -3.859926032000728
F       4.623033732887130     -2.716863489788925     -2.043032539109825
C       4.039618202466739      1.674685147758987     -2.628174079481059
F       4.969306600424019      0.731474792441290     -2.750377632314406
F       3.714586666140218      2.056839079908321     -3.859926032000731
F       4.623033732887106      2.716863489788936     -2.043032539109818
C       4.920052270746602      1.035012329491514     -0.867305929570692
F       5.353866095886581      0.452075888304809     -1.981258653277581
F       5.142926451538784      2.339139273111785     -1.003247146498692
F       5.704377421084056      0.611171530865855      0.119655587393620
C      -2.827902744363826      2.054591607585544     -3.716450406715186
F      -3.827974836828549      2.781184944191776     -3.225718368763054
F      -2.117496314166999      2.858502227329841     -4.502548631746473
F      -3.372937485488412      1.130532978593782     -4.502550133946484
C      -3.372040913348887      3.729276726452439     -0.867305961482758
F      -4.065646473117276      3.512659571446616     -1.981257637102289
F      -2.785803175585931      4.915339440312276     -1.003249161437770
F      -4.255699474576726      3.847398385957907      0.119656459648066
C      -2.827902744363826     -2.054591607585544     -3.716450406715186
F      -3.827974836828549     -2.781184944191776     -3.225718368763054
F      -3.372937485488413     -1.130532978593782     -4.502550133946483
F      -2.117496314166999     -2.858502227329840     -4.502548631746474
C      -4.588770841105216     -2.054591601470715     -0.867305972905589
F      -4.597092524835205     -2.781185206412829     -1.981259510014351
F      -5.535626696788588     -1.130532956306001     -1.003245697984251
F      -4.974175195124164     -2.858501963155492      0.119654823822978
C      -1.424572270379600      1.035012337227138     -4.788499572482579
F      -0.622230114684808      0.452075896827107     -5.674689265296017
F      -2.658098361826505      0.611171544254953     -5.048638696668905
F      -1.402655110619556      2.339139281866804     -5.048639055016206
C       1.760868152479977      0.000000000000000     -4.788499575570214
F       0.769118265312520      0.000000000000000     -5.674689262546618
F       2.509683867958250      1.067943146804714     -5.048638883337428
F       2.509683867958251     -1.067943146804714     -5.048638883337428
C       0.544138182493537     -1.674685160337224     -4.788499578453168
F       0.237671079047454     -0.731474811124619     -5.674689259979422
F      -0.240139681719552     -2.716863501523450     -5.048639035029212
F       1.791209143019818     -2.056839099354533     -5.048638745641836
