63

C      -1.326201239548166      0.005398473303634      3.596379109362142
C      -0.402252142348675     -1.148304570243263      3.293456130994208
C       0.953074787762679     -0.704793204369519      3.265103298191002
C       0.952363811753903      0.715973634885981      3.274699600906426
C      -0.409825192592820      1.164481653544520      3.301310917374191
C       2.335135614188562     -2.581556133123893      0.582424295280576
C       3.400853757171413     -1.518232778088562      0.632793556444468
C       2.933977443747750     -0.701866411312844      1.814759814585855
C       1.926586950237270     -1.393654112593432      2.536047379945681
C       1.560482665750624     -2.553393837405228      1.777599665452606
C       3.173294520271793      1.410777308198907      0.571096116453609
C       2.327475651981640      2.555108071695678      0.566299326125825
C       1.562054862498465      2.544736517720331      1.790735120042213
C       1.918783726513005      1.383651234796619      2.537815290839896
C       2.922630178118272      0.669583402142154      1.803138388850024
C      -0.372666474099221      3.408992252919681      0.582859010116751
C      -1.734408637489317      2.962820435202351      0.574534946999518
C      -1.993960770665178      2.258366612251093      1.794803966685891
C      -0.746953575679045      2.256971838459895      2.568485473529696
C       0.241529717980036      2.952198453176330      1.795256571035432
C      -3.377936209202098      0.717896084637636      0.576225841772180
C      -3.377221428940142     -0.707679179854972      0.576363887144997
C      -2.802324634683740     -1.150979596290034      1.813086254826096
C      -2.663101559906044      0.006503123683532      2.769992065114194
C      -2.801100033836172      1.162353441465185      1.812298501271880
C      -1.741981650171820     -2.954389251285339      0.579915631455765
C      -0.381068052172261     -3.399337983045646      0.586180938065266
C       0.228871347305966     -2.946105326746833      1.794055131421993
C      -0.749651205380301     -2.247397961634706      2.568944073154975
C      -1.998390682171450     -2.247376145399938      1.800499404976480
C      -0.232689144453319     -2.983515484640945     -1.818725903752286
C       0.761955881944706     -2.271192384960280     -2.583348355588299
C       1.970917848473380     -2.277273684252407     -1.833801932434532
C       1.742612244947312     -2.988904321768780     -0.583544439090941
C       0.365862104300817     -3.402411439801979     -0.582631062723833
C       2.791158263605009     -1.153525286575118     -1.817957727203713
C       2.407342633286917      0.014645443529490     -2.598138196404557
C       2.782509417361474      1.169283248074875     -1.844523005924392
C       3.396033669121515      0.703039009622294     -0.607501432657185
C       3.399687117523856     -0.708546695959938     -0.619843287495944
C       1.971386526813130      2.286222322072717     -1.836838102956602
C       0.751601277878514      2.292211167189580     -2.598963077638838
C      -0.239899326795637      2.998648886078345     -1.835554547845569
C       0.363372404969310      3.423375339066790     -0.595058776085283
C       1.731738084475850      2.999721972422208     -0.607790332091884
C      -1.552436206712355      2.567433105298331     -1.838869628379735
C      -1.929214576991015      1.409779723878247     -2.606750472569149
C      -2.919499943775651      0.695076274034683     -1.833497662535645
C      -3.146724746119153      1.404493231136769     -0.608171011855112
C      -2.312230366604853      2.562910051209519     -0.617319796538774
C      -2.918713880783522     -0.688968653360770     -1.832698764669929
C      -1.933645068836527     -1.406507171960496     -2.604027832222185
C      -1.547837811430117     -2.555675072446267     -1.830508366202939
C      -2.314938877938201     -2.554606827358844     -0.612766418536292
C      -3.151911487903523     -1.398139285471406     -0.606877386693066
C      -0.975839808009157     -0.720810820868982     -3.330022424646960
C      -0.978513324999357      0.724994555105497     -3.334986802442233
C       0.389322581834380      1.171710765186764     -3.337038790397723
C       1.236869555717395      0.007697370088717     -3.331217608151388
C       0.387584761502399     -1.159454095747592     -3.332686664010961
Cl     -1.648026070408054     -0.007840256350658      5.386882291735911
Cl     -4.119577910940048     -0.002372364775554      3.859657971939365
Cl      5.072672231029162     -2.215628931278494      0.896385089379144
