63

C      -1.305241328795970      0.000000000005380      3.578073290234220
C      -0.381986221201590     -1.166157374887720      3.286229950442090
C       0.973164467856840     -0.719533366287460      3.268521058942510
C       0.973164467855300      0.719533366302160      3.268521058944730
C      -0.381986221204590      1.166157374903790      3.286229950452740
C       2.335257905658480     -2.581785817155330      0.582659183788670
C       3.184024290646400     -1.415510524499680      0.583051646339270
C       2.945755514690930     -0.693318305394350      1.807272452762140
C       1.946336167227050     -1.414288330307760      2.556915871810140
C       1.575372846359230     -2.577100024538350      1.805712631964640
C       3.184024290645680      1.415510524502950      0.583051646336180
C       2.335257905658400      2.581785817158750      0.582659183782370
C       1.575372846359290      2.577100024546140      1.805712631958970
C       1.946336167226230      1.414288330318140      2.556915871808420
C       2.945755514689500      0.693318305401760      1.807272452761240
C      -0.362867253886840      3.437161175939320      0.579054624182040
C      -1.733070794755980      2.992750616253320      0.575249515348270
C      -1.977523206291560      2.274962218235720      1.794570838578070
C      -0.736616259096860      2.274964977785290      2.565238141889620
C       0.247972499111120      2.992760918284230      1.805573038340600
C      -3.365901640178220      0.719537323330880      0.573752489023120
C      -3.365901640178880     -0.719537323322150      0.573752489025100
C      -2.781051902509460     -1.166178275433130      1.796330804270550
C      -2.633318007347430      0.000000000008240      2.753260191314180
C      -2.781051902507060      1.166178275446120      1.796330804265900
C      -1.733070794758150     -2.992750616246430      0.575249515356210
C      -0.362867253889060     -3.437161175934430      0.579054624190380
C       0.247972499110820     -2.992760918275990      1.805573038346080
C      -0.736616259096610     -2.274964977772870      2.565238141889860
C      -1.977523206293630     -2.274962218223760      1.794570838583130
C      -0.240456900662170     -3.007437825480850     -1.830342467305290
C       0.752316615868050     -2.288409938058000     -2.584241282733240
C       1.978240177388550     -2.288455278856700     -1.822883837984710
C       1.742589187221440     -3.007456955565840     -0.598751343931600
C       0.368992882451240     -3.448134251186720     -0.599343025336380
C       2.795666200087230     -1.165918227839080     -1.823256958638530
C       2.416973591098740     -0.000000000002710     -2.581085319768380
C       2.795666200087790      1.165918227835560     -1.823256958641480
C       3.409596806914120      0.721107954348460     -0.597782865656640
C       3.409596806914330     -0.721107954348570     -0.597782865655460
C       1.978240177389610      2.288455278853450     -1.822883837990840
C       0.752316615869260      2.288409938053220     -2.584241282739480
C      -0.240456900660360      3.007437825478840     -1.830342467313410
C       0.368992882452850      3.448134251187490     -0.599343025345300
C       1.742589187222580      3.007456955565890     -0.598751343939550
C      -1.562172860297130      2.581786793569120     -1.837849757978720
C      -1.938799752529340      1.415530084028890     -2.598493553925070
C      -2.930523864274690      0.693316528569810     -1.842221734690450
C      -3.159436989902610      1.414270699753030     -0.614038810205820
C      -2.321631605916170      2.577079567877640     -0.614524321632800
C      -2.930523864274550     -0.693316528569490     -1.842221734688680
C      -1.938799752529990     -1.415530084031790     -2.598493553921220
C      -1.562172860298770     -2.581786793570090     -1.837849757971510
C      -2.321631605918230     -2.577079567874010     -0.614524321625730
C      -3.159436989903440     -1.414270699748490     -0.614038810201680
C      -0.980337765271700     -0.721097157202070     -3.324157557265900
C      -0.980337765271440      0.721097157196200     -3.324157557267390
C       0.390321060207770      1.165796487704280     -3.317060468272900
C       1.237579081771700     -0.000000000003480     -3.313557252386610
C       0.390321060207220     -1.165796487710870     -3.317060468269710
Cl     -1.609493189302060     -0.000000000157970      5.364434190013630
Cl     -4.099571091786140      0.000000000042090      3.818029530816840
Cl      2.385216379234725     -3.895501187904488      2.744899420997871
