62

C      -1.300744474327441      0.012736628147231      3.552304338270300
C      -0.377590568331356     -1.150547298222248      3.305314085154795
C       0.982409509389270     -0.713084538273567      3.271022314207808
C       0.976358567786001      0.721311195471216      3.253333824813214
C      -0.377546552692751      1.177040533607959      3.295269773278995
C       2.332482944455524     -2.568127906808086      0.571846844535465
C       3.188710905797163     -1.416379825489585      0.563802875615278
C       2.941701844185246     -0.697389038231242      1.787251689144197
C       1.942183312675622     -1.401192818986569      2.539591768055123
C       1.574321563010076     -2.560648332280139      1.791961050865134
C       3.195085520212840      1.399231543613114      0.556910757217247
C       2.335921205108646      2.552086813762273      0.563649547030224
C       1.568074464137172      2.542391072501760      1.775965007607139
C       1.942705756140246      1.390555402393782      2.525464699272407
C       2.943944353066494      0.683763729621130      1.778978586397213
C      -0.359637257020386      3.417202240753060      0.584823697669877
C      -1.726829009471529      3.003267359197766      0.604072882564644
C      -2.096473621309815      2.462873229871482      1.959498856440836
C      -0.734835581930894      2.276699172167151      2.580376753138209
C       0.249620882125004      2.957145048217049      1.799222990061379
C      -3.379089840977374      0.696264070971545      0.568863776092612
C      -3.377009165179126     -0.732038101527589      0.563771773045018
C      -2.772717110057136     -1.170047589543712      1.781663282144707
C      -2.378931039984737      0.029148840162637      2.524457978630480
C      -2.735324070819393      1.125381892427391      1.812393191207459
C      -1.732693341858256     -2.995952045131777      0.577869520840761
C      -0.361686410554318     -3.421706240997475      0.585764609951850
C       0.248653542881706     -2.957017863381379      1.803331342704565
C      -0.727970947226082     -2.249073916468429      2.574321887103292
C      -1.969647480242684     -2.270156828575868      1.789658696161616
C      -0.240630994882374     -3.000044806101789     -1.821994708514131
C       0.750286152095722     -2.285866824932134     -2.578731548848829
C       1.973256017698010     -2.285025071272905     -1.825240497322095
C       1.737581162116324     -2.996959630273867     -0.601347047325625
C       0.366632909859811     -3.428954229201060     -0.589927617595188
C       2.796244962039401     -1.170954087799341     -1.834729356066186
C       2.419015786104993     -0.008031507414110     -2.591894249858442
C       2.803247513633604      1.154987919984176     -1.839036906819657
C       3.421851147719253      0.710184928853986     -0.619033053943467
C       3.413574728768515     -0.727649103862679     -0.614333374439127
C       1.990384577432103      2.273880322073855     -1.836286833813027
C       0.760421678950828      2.272470025301594     -2.576539253415098
C      -0.227068246065035      2.983316856863956     -1.812858591275447
C       0.376233401257121      3.415796398931890     -0.593221917710817
C       1.744783417677363      2.984553059683920     -0.607485572575952
C      -1.540989167281973      2.551204211359890     -1.777703112994500
C      -1.928818462298972      1.400495936403925     -2.549548563525967
C      -2.926409320067689      0.679062634120726     -1.810844278561225
C      -3.156264482898697      1.383915853866095     -0.585529644556066
C      -2.293879508588099      2.572167945527662     -0.560287652992855
C      -2.932851085286323     -0.709278251984814     -1.829704335508715
C      -1.936395414181288     -1.421065182256023     -2.587945184397857
C      -1.558217702319928     -2.585303223575194     -1.830734097001102
C      -2.323161831627122     -2.585310658974807     -0.610143388075005
C      -3.173160749281026     -1.431939152186276     -0.615773408396511
C      -0.980421835770556     -0.724968779240129     -3.302614244008690
C      -0.979705284373005      0.714034606197232     -3.285030551019731
C       0.388942473117580      1.154734433321116     -3.303023169266857
C       1.233621346852344     -0.006058868582943     -3.309206230653866
C       0.386906180484301     -1.166889630705746     -3.307487800612571
Cl     -2.023915442435686      0.039012249264133      5.215036656760322
Cl     -3.165070783368396      3.567586776946612      2.922189674097899
