73

C      -3.467084000000000     -1.682645000000000     -0.778544000000000
C      -3.825939000000000     -0.679045000000000      0.404612000000000
C      -3.514333000000000      0.775344000000000     -0.237415000000000
C      -3.001584000000000     -0.820021000000000     -1.917585000000000
C      -3.052273000000000      0.527865000000000     -1.645793000000000
C      -1.906761000000000     -1.404791000000000     -2.571888000000000
C      -2.271426000000000     -2.584448000000000     -0.612901000000000
C      -1.508426000000000     -2.572384000000000     -1.792215000000000
C      -1.673137000000000     -2.902039000000000      0.618467000000000
C      -2.819709000000000     -0.792472000000000      1.658500000000000
C      -1.854065000000000     -1.979836000000000      1.712864000000000
C      -2.294986000000000      1.265238000000000      0.501616000000000
C      -1.982630000000000      0.462226000000000      1.570408000000000
C      -1.358521000000000      2.172534000000000     -0.021355000000000
C      -2.097731000000000      1.353783000000000     -2.228603000000000
C      -1.511305000000000      2.564503000000000     -1.497245000000000
C      -0.929447000000000     -0.617608000000000     -3.202868000000000
C      -1.122996000000000      0.801630000000000     -3.082046000000000
C       0.430796000000000     -1.146259000000000     -3.358076000000000
C      -0.189131000000000     -3.075287000000000     -1.851371000000000
C       0.792208000000000     -2.416545000000000     -2.713687000000000
C      -0.466111000000000     -3.652287000000000      0.532726000000000
C       0.237459000000000     -3.790668000000000     -0.706147000000000
C       0.513513000000000     -3.630818000000000      1.588134000000000
C      -0.789559000000000     -1.820410000000000      2.602419000000000
C       0.358464000000000     -2.704228000000000      2.606561000000000
C      -0.778359000000000      0.626984000000000      2.275097000000000
C      -0.315398000000000     -0.514588000000000      3.020125000000000
C      -0.165456000000000      2.403961000000000      0.699287000000000
C       0.107070000000000      1.665388000000000      1.875462000000000
C       0.915844000000000      3.303620000000000      0.079916000000000
C      -0.143424000000000      2.684502000000000     -2.125649000000000
C       0.008854000000000      1.690629000000000     -3.139994000000000
C       0.952634000000000      3.102248000000000     -1.429842000000000
C       1.462355000000000     -0.228382000000000     -3.643195000000000
C       1.251752000000000      1.207446000000000     -3.490654000000000
C       2.827773000000000     -0.487634000000000     -3.287538000000000
C       2.156469000000000     -2.681417000000000     -2.456037000000000
C       3.174822000000000     -1.704391000000000     -2.715536000000000
C       1.640967000000000     -3.957423000000000     -0.413519000000000
C       1.825422000000000     -3.858103000000000      1.016611000000000
C       2.578876000000000     -3.434098000000000     -1.280809000000000
C       2.942717000000000     -3.202286000000000      1.523812000000000
C       1.506764000000000     -1.982539000000000      3.104451000000000
C       1.081580000000000     -0.619380000000000      3.345690000000000
C       2.778619000000000     -2.240608000000000      2.599828000000000
C       1.450872000000000      1.778528000000000      2.590937000000000
C       1.943452000000000      0.428027000000000      3.095256000000000
C       2.311390000000000      2.856603000000000      0.483265000000000
C       2.560000000000000      2.182143000000000      1.641613000000000
C       2.257088000000000      2.684229000000000     -1.838757000000000
C       2.422646000000000      1.776874000000000     -2.894716000000000
C       3.426772000000000      0.741187000000000     -2.800439000000000
C       3.107498000000000      2.588669000000000     -0.678499000000000
C       4.301125000000000      0.700946000000000     -1.720995000000000
C       4.145225000000000      1.653357000000000     -0.636201000000000
C       4.160103000000000     -1.758364000000000     -1.653710000000000
C       3.788039000000000     -2.832284000000000     -0.761871000000000
C       3.952219000000000     -2.690245000000000      0.619609000000000
C       4.688355000000000     -0.572179000000000     -1.142889000000000
C       3.685402000000000     -1.144291000000000      2.359672000000000
C       3.257758000000000      0.166540000000000      2.606685000000000
C       3.636566000000000      1.238614000000000      1.712407000000000
C       4.429563000000000      0.972813000000000      0.595431000000000
C       4.437560000000000     -1.431656000000000      1.152265000000000
C       4.800545000000000     -0.399426000000000      0.290959000000000
Cl     -4.834430000000000     -2.787171000000000     -1.322000000000000
Cl     -5.530352000000000     -0.843062000000000      0.892368000000000
Cl     -4.846514000000000      1.998180000000000     -0.119422000000000
Cl     -2.467751000000000      4.118247000000000     -1.709655000000000
Cl      0.598653000000000      5.052733000000000      0.564113000000000
Cl      1.272295000000000      2.987151000000000      3.992775000000000
Cl     -3.698023000000000     -0.772670000000000      3.293787000000000
