75

C       3.420062000000000     -1.034955000000000      1.098721000000000
C       3.363112000000000     -1.615689000000000     -0.394456000000000
C       3.342211000000000     -0.383896000000000     -1.400222000000000
C       3.185986000000000      0.539047000000000      0.916584000000000
C       3.020812000000000      0.792502000000000     -0.545669000000000
C       1.862475000000000      0.828998000000000      1.559103000000000
C       2.189160000000000     -1.507984000000000      2.045717000000000
C       1.364439000000000     -0.254525000000000      2.235036000000000
C       1.239703000000000     -2.577591000000000      1.514478000000000
C       2.103917000000000     -2.333919000000000     -0.751032000000000
C       1.285795000000000     -3.037534000000000      0.157021000000000
C       2.148821000000000     -0.651612000000000     -2.307426000000000
C       1.609667000000000     -1.938596000000000     -1.995457000000000
C       1.342231000000000      0.319228000000000     -2.824960000000000
C       2.250920000000000      1.777296000000000     -0.992207000000000
C       1.640034000000000      1.761563000000000     -2.388923000000000
C       1.042620000000000      1.898123000000000      1.181665000000000
C       1.485204000000000      2.697859000000000     -0.046936000000000
C      -0.272767000000000      1.950911000000000      1.687247000000000
C       0.035254000000000     -0.265158000000000      2.698233000000000
C      -0.768425000000000      0.890549000000000      2.483750000000000
C       0.015718000000000     -2.676493000000000      2.184302000000000
C      -0.557004000000000     -1.560384000000000      2.911687000000000
C      -1.088805000000000     -3.447661000000000      1.656252000000000
C       0.155161000000000     -3.679336000000000     -0.409478000000000
C      -1.013375000000000     -3.975644000000000      0.376426000000000
C       0.345477000000000     -2.360338000000000     -2.480901000000000
C      -0.278974000000000     -3.388718000000000     -1.744442000000000
C       0.032409000000000     -0.047173000000000     -3.373544000000000
C      -0.440781000000000     -1.427982000000000     -3.263207000000000
C      -0.931250000000000      0.962574000000000     -3.562803000000000
C       0.375375000000000      2.537812000000000     -2.172832000000000
C       0.289121000000000      3.065886000000000     -0.867864000000000
C      -0.768941000000000      2.255961000000000     -2.883703000000000
C      -1.211517000000000      3.049840000000000      1.176589000000000
C      -0.932377000000000      3.324025000000000     -0.294056000000000
C      -2.655933000000000      2.581780000000000      1.130169000000000
C      -2.236457000000000      0.837746000000000      2.901986000000000
C      -3.128647000000000      1.584553000000000      1.929930000000000
C      -1.990218000000000     -1.690293000000000      2.885917000000000
C      -2.330541000000000     -2.873409000000000      2.122918000000000
C      -2.799721000000000     -0.575132000000000      2.821771000000000
C      -3.463336000000000     -2.887617000000000      1.314283000000000
C      -2.175605000000000     -3.945028000000000     -0.488923000000000
C      -1.704559000000000     -3.584846000000000     -1.809298000000000
C      -3.384755000000000     -3.437371000000000     -0.028958000000000
C      -1.827224000000000     -1.700218000000000     -3.388667000000000
C      -2.460161000000000     -2.769125000000000     -2.629626000000000
C      -2.330876000000000      0.673188000000000     -3.573668000000000
C      -2.781171000000000     -0.644233000000000     -3.513399000000000
C      -2.037188000000000      2.651215000000000     -2.369150000000000
C      -2.109472000000000      3.156001000000000     -1.060472000000000
C      -3.188620000000000      2.745816000000000     -0.190315000000000
C      -3.030646000000000      1.704082000000000     -2.825669000000000
C      -4.194281000000000      1.906868000000000     -0.667709000000000
C      -4.105391000000000      1.366057000000000     -2.016777000000000
C      -4.180697000000000      0.727799000000000      1.467577000000000
C      -3.977727000000000     -0.593922000000000      2.016732000000000
C      -4.320902000000000     -1.728358000000000      1.269735000000000
C      -4.717984000000000      0.880888000000000      0.187613000000000
C      -4.198877000000000     -2.609672000000000     -0.898569000000000
C      -3.760333000000000     -2.307828000000000     -2.191073000000000
C      -3.958940000000000     -0.984703000000000     -2.738863000000000
C      -4.591920000000000     -0.001824000000000     -1.978369000000000
C      -4.802775000000000     -1.569722000000000     -0.089259000000000
C      -4.995636000000000     -0.295598000000000     -0.619807000000000
Cl      5.006064000000000     -1.382207000000000      1.833257000000000
Cl      4.654822000000000     -2.841387000000000     -0.771390000000000
Cl      4.863387000000000     -0.110682000000000     -2.346452000000000
Cl      2.722281000000000      2.626832000000000     -3.621733000000000
Cl      4.468037000000000      1.612425000000000      1.636601000000000
Cl      2.437869000000000      4.208732000000000      0.409909000000000
Cl      2.744076000000000     -2.097663000000000      3.710630000000000
Cl     -1.020344000000000      4.548057000000000      2.234004000000000
Cl     -2.384735000000000      1.516805000000000      4.625968000000000
