69

C      -1.357853320420440      1.914321574684360     -3.951157176889500
C       0.115784508384720      2.074672711853910     -3.739253391284860
C       0.793555872792450      0.835210159616920     -3.987009477537880
C      -1.514775640239010      0.385310059356080     -4.249990668791100
C      -0.106617511318080     -0.146278300419460     -4.211701593163740
C      -2.193452917011810     -0.158473293913260     -3.009977402700650
C      -1.956711803009830      2.093157896842050     -2.579126229611980
C      -2.583301095788790      0.896118758324980     -2.168357199059210
C      -1.431730444750580      2.948263802775540     -1.583186218880890
C       0.734613577042340      2.659982822457310     -2.657564344875450
C      -0.014022063107500      3.291356729545480     -1.611896054036640
C       1.931327917784580      0.715349899858760     -3.105149095431050
C       1.908149603289930      1.861062572697450     -2.309852580638530
C       2.272623051309830     -0.551613060846630     -2.561374372872720
C       0.224460551071790     -1.530744288525520     -3.844652836801210
C       1.485809205075750     -1.637582169201880     -2.975948180207290
C      -1.933074312171100     -1.423311496111600     -2.439585168300900
C      -0.812568549051360     -2.136836227591770     -2.906662700728620
C      -2.443266920851180     -1.718087483978420     -1.106603368805520
C      -3.027208352554470      0.674475032317810     -0.837107193979250
C      -3.042535829111030     -0.666488644183460     -0.316908632184680
C      -2.048602085109590      2.863483389593150     -0.319356413147650
C      -2.916391306733830      1.773840442246100      0.022862951921250
C      -1.398437309954610      3.285287425733980      0.885717042827270
C       0.654894249200730      3.473814806032750     -0.409067746580630
C      -0.040688323333290      3.576374973694610      0.842073981948930
C       2.462636848129980      1.871719400462160     -1.006703984581990
C       1.933709016417820      2.830954829184490     -0.129278965058890
C       2.918450329287200     -0.575148463515280     -1.263769095898370
C       3.056416540522680      0.653509449593470     -0.502010733688380
C       2.901152565300150     -1.794530254309310     -0.557311667540290
C       1.285591775242110     -2.728467295930000     -2.111069377418330
C      -0.132006492626320     -3.033841203641140     -2.069000265290740
C       2.043520195415910     -2.865379427621170     -0.956857406819190
C      -1.899716329526430     -2.821034650168220     -0.420431355693620
C      -0.700870569823660     -3.456896027230270     -0.875218337544950
C      -1.893235250154190     -2.905433948745770      1.011606408140050
C      -3.108891768368290     -0.807259977018300      1.085203912404800
C      -2.503035697196630     -1.917981466372620      1.757262662878260
C      -2.876229165147550      1.598958284251580      1.441468040687280
C      -1.927260938275260      2.531271155696090      1.989975340578200
C      -2.993365876276530      0.324712114424030      1.963459547938570
C      -1.105927607477240      2.131668617441980      3.036236137380940
C       0.818373077772870      3.118039361028020      1.897747277633560
C       2.034730546836110      2.658811890568800      1.276962118743000
C       0.302291658817730      2.435051441446750      2.989674151197900
C       3.235397829026990      0.567456777145560      0.894695093982020
C       2.706958532727930      1.555953448586650      1.784441492464650
C       2.998712110822700     -1.851742193343990      0.873964625812000
C       3.181025001780620     -0.689070835861000      1.589926867318590
C       1.481781227949020     -3.473388014896190      0.224076343175190
C       0.121501180013920     -3.768575936466340      0.263509937424810
C      -0.636611969616010     -3.467134734699270      1.444471632938080
C       2.109812817090780     -2.874475307100950      1.366859950042420
C      -0.014151670920340     -2.958905382835930      2.578156770502000
C       1.395011328712280     -2.655461821181550      2.539443984116460
C      -1.907604689925680     -1.456551338549760      2.985384351106660
C      -2.208700316406110     -0.057641867752110      3.110519383543130
C      -1.257795361438240      0.821797863096850      3.615464687226600
C      -0.664235729853490     -1.944348441415730      3.367879158435650
C       1.018489682951330      1.313547795887530      3.544356913249880
C       2.215112908151170      0.900962319919370      2.971638878672510
C       2.514379324746010     -0.498840418079550      2.851994879334460
C       1.609940184073840     -1.453559257330440      3.301810019354520
C       0.053225902803020      0.326460270837090      3.959544630792130
C       0.342107410519530     -1.027231906083920      3.840944618975610
H      -1.801041316420690      2.568927503164980     -4.704028010254620
H      -2.062427214147770      0.145891572309240     -5.164473899192680
H       0.332383812607810     -2.163984896989590     -4.734943334422590
