69

C      -1.211220372713850      1.783952726272400     -3.684492426708090
C       0.147013641349650      2.103283521191120     -3.774258634557090
C       0.946733007328440      0.912384856203280     -4.269025257061360
C      -1.354950159023550      0.366264610366000     -3.956158189675520
C      -0.092015213828520     -0.176108914657850     -4.213718971795220
C      -2.244060508370260     -0.195029625517140     -3.017526306027990
C      -1.996774962244140      2.109671906276840     -2.569519125749920
C      -2.695183059678430      0.898985816787760     -2.171112615971420
C      -1.448421874004780      2.960068945589270     -1.559949884314370
C       0.755142157264600      2.675978584422160     -2.661627543061550
C      -0.023112611282810      3.243245376606030     -1.611753765097600
C       1.933706028508310      0.731583178947190     -3.129549781774170
C       1.915577672571820      1.862135591485070     -2.324110407948470
C       2.279491103902200     -0.531097390989890     -2.584900590204670
C       0.196528600722110     -1.385307754797250     -3.634581521491730
C       1.480833482329930     -1.632331034879110     -2.986851742817690
C      -2.004563461730290     -1.472382467927370     -2.493803283236540
C      -0.814430851171040     -2.095170765291430     -2.907221379488880
C      -2.727173716316240     -1.875194836652710     -1.208621707678240
C      -3.070267435627120      0.666561117499200     -0.861750859849780
C      -3.067567811983580     -0.646517312846170     -0.322487151761530
C      -2.066188310571170      2.906060879328900     -0.310918061671280
C      -3.173729723443730      1.910529598080080      0.011340036513980
C      -1.387278321998740      3.255198403286660      0.865191266160630
C       0.662396522398890      3.449535282051940     -0.405359200466760
C      -0.021087852113880      3.568019438081650      0.828912166542550
C       2.472365222364480      1.868611020748430     -1.016828688368700
C       1.946402411708790      2.826117342084650     -0.137033526148130
C       2.919153567680730     -0.565380498276830     -1.281476709134200
C       3.065797845760800      0.654617326495080     -0.513928827276880
C       2.906588260799770     -1.788541007833750     -0.573373762992220
C       1.279604313011070     -2.726936806881440     -2.112813323273690
C      -0.123741962898020     -3.031095635496560     -2.064190402316910
C       2.054811379943620     -2.864793509250830     -0.965476178745230
C      -1.920583909552890     -2.883678185263980     -0.422251563616560
C      -0.697472009593490     -3.443040069494050     -0.877740107859610
C      -1.880856464767690     -2.910196435708640      0.983944347576270
C      -3.095960489519630     -0.796367142208150      1.061753364346840
C      -2.495066813331200     -1.910600290795900      1.738818265655280
C      -2.894489834144200      1.621186471031760      1.457937802104220
C      -1.916393551506750      2.508510166072230      1.976959377300580
C      -2.973790368180260      0.344775945232360      1.954830591359200
C      -1.086247632941220      2.124552334236020      3.030947565933980
C       0.836697256992410      3.112864726829730      1.888529795719450
C       2.055796130631720      2.660796605458200      1.271692805616240
C       0.321133061088500      2.431223878453170      2.979635614536790
C       3.251762144923240      0.568421568822340      0.884892351241680
C       2.727173616959090      1.555831546927890      1.776528828111330
C       3.014949075990310     -1.847254843782880      0.859852875727290
C       3.201430508055140     -0.687768168402660      1.578609468258420
C       1.499255155487120     -3.471162969282570      0.214460562617340
C       0.139585802003480     -3.763104800379720      0.260080438018290
C      -0.616588271163760     -3.462799243870610      1.432668243171100
C       2.130565760525540     -2.871437439817060      1.356711036809230
C       0.005316414088620     -2.953408943768170      2.565213508918260
C       1.413669559830100     -2.652780601975820      2.526333055554870
C      -1.885729666754380     -1.447092967626580      2.949553050484690
C      -2.181568819843440     -0.049042995436100      3.083011499800260
C      -1.234570960465290      0.825614207235590      3.610259019082280
C      -0.645099746075500     -1.940740861988470      3.354169834513180
C       1.040069969268670      1.313261798902050      3.539032526857430
C       2.238181746611250      0.901591511354980      2.965111544037500
C       2.535183516917690     -0.498083780232860      2.843075942842630
C       1.628531512981220     -1.449947552403140      3.291388499068870
C       0.075265156538720      0.328853385602610      3.958146378139240
C       0.359845004591220     -1.025664592986020      3.828755711704760
H       1.441847167389000      1.026160756208940     -5.234998076679970
H      -4.169895812051610      2.348104027786450     -0.134418240725170
H      -3.694682799274850     -2.324206979427660     -1.494333671112460
