72

C      -1.348176078375330      1.894882099534940     -3.960487145507570
C       0.109298754945780      2.032851296446390     -3.681074040984110
C       0.822914302824620      0.819990163741390     -3.961499814495840
C      -1.496615669541580      0.356014668932540     -4.213119534267930
C      -0.098861411909910     -0.204545827168930     -4.198498658451070
C      -2.123335921001890     -0.168682129273460     -2.943799811076000
C      -2.161524364926630      2.233128846307170     -2.682503658862250
C      -2.586258590320760      0.880593928600050     -2.150539998874390
C      -1.418805920614490      2.946589531651090     -1.559834983385050
C       0.729060343617090      2.671740920652220     -2.659170436587960
C      -0.021348602922350      3.258161814556550     -1.597025675448640
C       1.937658074004940      0.710587676430260     -3.130539692206440
C       2.116456717003580      2.041367634975690     -2.443259120796410
C       2.250013359317110     -0.522628354445560     -2.558080149849960
C       0.190786723840270     -1.421914260165620     -3.649675814728210
C       1.407723505814180     -1.610016493337640     -2.946032786942150
C      -1.922995548992460     -1.433115431267820     -2.422709319315870
C      -0.893189713642010     -2.335112589237900     -3.113738120157620
C      -2.397923185585860     -1.722930604081120     -1.106004683954810
C      -3.010032838870040      0.670111648620030     -0.846471856484870
C      -2.994177035085340     -0.667431633011700     -0.317605689703290
C      -2.033901532386110      2.877855320607940     -0.321658960059550
C      -2.936192132556570      1.788110526361160      0.040499285020460
C      -1.378465349025030      3.289762149098390      0.879390279481850
C       0.669402263508030      3.485641880031920     -0.401778039014120
C      -0.020332804732080      3.591150647755510      0.838253171229680
C       2.487456010603760      1.892707671293710     -0.999683599533550
C       1.948157363238240      2.828384602443030     -0.128922774506470
C       2.911908457834730     -0.566140363808530     -1.264944184534820
C       3.044163880694950      0.671532612426210     -0.500324055369730
C       2.895471711562310     -1.780496370995280     -0.568576360635020
C       1.247308598874220     -2.738228474589280     -2.092597293474300
C      -0.127152844086630     -3.120852536110460     -2.087638802843250
C       2.035234452215340     -2.868497937046160     -0.963501479763120
C      -1.910976556444450     -2.868883444773390     -0.430381161619760
C      -0.687165830876430     -3.510473782413920     -0.901551545468580
C      -1.890640955330970     -2.930484449529870      0.982882343069810
C      -3.076771420761330     -0.816811389949550      1.079760706988830
C      -2.493577225631470     -1.928699277429420      1.739387559306450
C      -2.875864665201860      1.606878739272820      1.422780488613720
C      -1.912381162957650      2.537312946144520      1.978560329507790
C      -2.978191823170270      0.317611009182990      1.974080370277520
C      -1.097831471622690      2.138815471240100      3.019478479384440
C       0.832533621325160      3.132437072373840      1.900552155594810
C       2.043409074425080      2.663627082527670      1.283974015665620
C       0.306977538196180      2.445771693027880      2.982491919541890
C       3.214648672754660      0.569481873592660      0.897737131073150
C       2.698346036775850      1.556767551318950      1.797338673520020
C       2.995300515845910     -1.848986747051140      0.861207644497820
C       3.158694345560180     -0.685431848036930      1.584113882993250
C       1.493688292986060     -3.480847837195400      0.212982263764830
C       0.133388653340720     -3.783497905650070      0.245378806829580
C      -0.630974749176480     -3.475769318877730      1.420006535728890
C       2.117104653358670     -2.869502033519110      1.351644555883920
C      -0.017453346457500     -2.944032774544670      2.551763848400070
C       1.389561190812290     -2.633030023179510      2.520827878028550
C      -1.895419882267940     -1.467802099611010      2.963391547024530
C      -2.225278829798200     -0.056429205445080      3.103884503554170
C      -1.236490996546850      0.817132767489580      3.607251575740430
C      -0.675717324971670     -1.958920071039550      3.353032891354790
C       1.004721374191610      1.310173305129910      3.539329794010720
C       2.213061062925640      0.907405077924470      2.984416932190580
C       2.492867077143380     -0.507186825884260      2.845322154352380
C       1.612780401864620     -1.463009185487980      3.299590513290700
C       0.033222268836780      0.348343588035700      3.964656804492930
C       0.354954177689210     -1.112457602943120      4.081393784531020
H      -1.678604768795080      2.488991707673930     -4.813801173467000
H      -2.083474966078240      0.108130344010490     -5.099348698601930
H      -1.370822573457040     -2.961296189587350     -3.873525578385870
H       2.875509007777040      2.655715653080910     -2.946798808019440
H      -3.037407043744150      2.839496941729030     -2.940902738795760
H       0.438491392381700     -1.416008051031750      5.133490223110710
