72

C      -1.311214845811150      1.866238201566050     -3.886503333645500
C       0.194409247741460      2.215907867821760     -3.978288559164800
C       0.958949263546480      0.893806825574710     -4.305398625309300
C      -1.337732358461190      0.367117629817600     -3.946123336870270
C      -0.082546020036870     -0.180189743713260     -4.185937219481550
C      -2.184872745094950     -0.162580457529880     -2.976414827352750
C      -1.965375487193390      2.097144374328480     -2.550561168532530
C      -2.643774218844770      0.933853429586080     -2.152050271402400
C      -1.458735743569720      2.972742170339520     -1.574629785010390
C       0.731875873635000      2.630932915570970     -2.642820999928080
C      -0.022688068760020      3.247394715734800     -1.626506725914880
C       1.879849649296260      0.690040830086450     -3.119131613522220
C       1.846220166064040      1.855032406732820     -2.297643217277640
C       2.219437496683590     -0.513675465108160     -2.567420611837170
C       0.203831093439420     -1.406566740244220     -3.644142435414350
C       1.599950567226240     -1.773742552725840     -3.178992895129860
C      -1.945819879502030     -1.427079748278290     -2.405647290479110
C      -0.769343895238600     -2.082477080576680     -2.867196864675800
C      -2.459681749141540     -1.715946559931720     -1.087515988893920
C      -3.074354855880220      0.704706143725190     -0.828768635690830
C      -3.083988787809470     -0.640545265667140     -0.300732511387250
C      -2.069027592978590      2.896172642344040     -0.310171971266110
C      -2.938525377936700      1.812917953369690      0.035003877337540
C      -1.399955831269460      3.306774442359090      0.896594356916830
C       0.647333138460930      3.451523708901520     -0.404903998758160
C      -0.046301383585960      3.589493200337800      0.849143239574470
C       2.414677501700630      1.862922724626020     -1.008773368245640
C       1.901327712896630      2.831463090912430     -0.128502626038670
C       2.840748305254240     -0.562053177712030     -1.267583800525170
C       3.004871418085250      0.653110516402560     -0.503443195539250
C       2.860520497789780     -1.792445610706840     -0.571259236780830
C       1.302476338366780     -2.796569221927110     -2.113028206677100
C      -0.112582959172030     -3.038877572435850     -2.049847457466180
C       2.050313835050320     -2.907724602316830     -0.987115527010170
C      -1.924272384695580     -2.811018370806250     -0.419414100376850
C      -0.702777518335890     -3.405454676330410     -0.852248985963040
C      -2.068836356970410     -3.101722301065030      1.053463600507460
C      -3.113125332657070     -0.783515567714940      1.092394142357280
C      -2.521157951318240     -1.888973081182150      1.779526687306710
C      -2.885755353085620      1.632312371560450      1.451922094805880
C      -1.930082815506590      2.554277976312210      2.001577589597120
C      -2.998258757850990      0.357130297241910      1.970649017208100
C      -1.106773835795630      2.145519710495700      3.044438559529860
C       0.815897929527830      3.135546984213510      1.908634907795500
C       2.030493509025650      2.675313790672850      1.288934825774850
C       0.303093468035090      2.446052154439390      2.998825505847460
C       3.224068564172120      0.580196067552890      0.885476792184770
C       2.705293088821750      1.579665385193770      1.786608473465010
C       2.964167134161500     -1.836617794008190      0.847218183704830
C       3.167636140353950     -0.666504344571830      1.571330444115310
C       1.590609473707590     -3.708191603200110      0.224620220209180
C       0.088399725474720     -3.731689102013730      0.293143212374300
C      -0.637755720101470     -3.466226258093960      1.434570609606660
C       2.116849767938750     -2.866524288214760      1.364405653122590
C      -0.024505385318490     -2.955122590156050      2.590746732203200
C       1.402248040495500     -2.630411772671210      2.510839048255200
C      -1.920057840123950     -1.449569920914730      2.951689278139580
C      -2.207723364409770     -0.034986553554800      3.101002557537480
C      -1.259465497711090      0.832803623138620      3.610009146498220
C      -0.656172586808870     -1.962232127549450      3.362140522175330
C       1.020336725446430      1.321813373781420      3.545591639345300
C       2.227283284086730      0.919531580335270      2.975678287479860
C       2.522293794331130     -0.476742166930670      2.839201063364900
C       1.612564051597450     -1.433542190653940      3.275542287577530
C       0.060574033865940      0.330633681033890      3.950363912367610
C       0.346043224532550     -1.019696345953840      3.815022719680450
H      -1.877673394336160      2.356438003300120     -4.682427894007230
H       0.368058649526340      2.994351277506230     -4.724033397169720
H       1.494777323862700      0.913780398269720     -5.255892586843500
H       2.238402891870830     -2.170562278272480     -3.975370832747900
H       2.013558157136920     -4.721191970243020      0.232027299156770
H      -2.751534860535650     -3.946530544032720      1.222194370953050
