74

C      -1.337404979404310      1.885267034350130     -3.957837867203380
C       0.182593990852150      2.211881247472190     -3.990769568495970
C       0.964430206594770      0.907297554676790     -4.372185837026560
C      -1.319812702302200      0.392795364164420     -3.925637645597800
C      -0.072983093015710     -0.144206498755350     -4.157646742526220
C      -2.176668834218490     -0.152400991512060     -2.956719580300110
C      -2.175670385165640      2.240673175928430     -2.696916235219180
C      -2.692180426233900      0.895778847184050     -2.182591141471920
C      -1.450938019639000      2.931832435015860     -1.570403730404270
C       0.709884831706650      2.527918610934860     -2.635929546627630
C      -0.043178470397700      3.163252181333170     -1.618454188657450
C       2.140410600435040      0.751821935519200     -3.344277588402030
C       1.842254631035460      1.813920687677630     -2.328488801575750
C       2.265291913012140     -0.568669036620250     -2.595582739393780
C       0.201911297519770     -1.381786435579310     -3.619544163323560
C       1.479820565639570     -1.642678784493440     -2.973910563318860
C      -1.958174373970400     -1.451229130850440     -2.422123683401090
C      -0.792624256189250     -2.099197979796790     -2.890517635071220
C      -2.466093301395040     -1.747450569477350     -1.110315415052460
C      -3.085236775811980      0.675939847941770     -0.864019461032310
C      -3.056965240018470     -0.680075118353020     -0.328335020286680
C      -2.062384568304830      2.884500170682440     -0.329183445316380
C      -2.963198871162680      1.783043737667450      0.017976800483860
C      -1.396325454403960      3.288781008158240      0.872971162826730
C       0.644658056970800      3.399954995944570     -0.420755722921570
C      -0.025521891269720      3.559769703363810      0.841538479941250
C       2.412099718407210      1.817125424966560     -1.040029263836180
C       1.897219484315680      2.774754989130330     -0.159364722268280
C       2.904202616524300     -0.601857225785610     -1.299951935038530
C       3.041962296769330      0.615318335843820     -0.527048824517990
C       2.898364587548810     -1.827207767552020     -0.585419707768420
C       1.284006588259520     -2.770084975460450     -2.117331440493400
C      -0.119913502298670     -3.056652903675950     -2.068151015841820
C       2.046270457310050     -2.906126421893950     -0.973092504113860
C      -1.911619610837520     -2.858996650047820     -0.431388060097010
C      -0.703225891058840     -3.486362711122310     -0.892610687447810
C      -1.893630994349760     -2.938109164697700      0.994656675285890
C      -3.089946320307900     -0.824585139413930      1.069573373522550
C      -2.484630962846970     -1.936844193380990      1.740903261672470
C      -2.848800510114570      1.582543225347090      1.405065915698920
C      -1.892387413286730      2.497836965440390      1.961478263366590
C      -2.958046696382390      0.302294684419480      1.947054992763840
C      -1.082515246402100      2.095873770142790      3.011961152757630
C       0.835115990334370      3.145575477493290      1.883004482752790
C       2.003464460416640      2.638815220715970      1.264360329398290
C       0.334760444881180      2.610031315160570      3.194589920133250
C       3.185959332074650      0.541296291995170      0.871594103888850
C       2.666953528732600      1.532561173352860      1.761045431279680
C       2.983082319887640     -1.878568641298220      0.847776318951220
C       3.132074505717160     -0.713167772398220      1.569486254998000
C       1.480778787190650     -3.510171120539910      0.208895917869730
C       0.120185127434100     -3.799909709687280      0.247563895068910
C      -0.640046012424270     -3.490869582214280      1.425973061078040
C       2.105306307719860     -2.897078361472760      1.345511307683680
C      -0.021049442306310     -2.963355649863270      2.556629275966700
C       1.384053789662270     -2.661918128040150      2.517349144045830
C      -1.877565807329200     -1.477125939077060      2.959535768179970
C      -2.175992143797200     -0.058792971824820      3.074861825320030
C      -1.222720512492820      0.817100029979240      3.571759279818900
C      -0.662980872524820     -1.967300049949640      3.358183819787140
C       1.026710017177770      1.310218693075000      3.572917739557670
C       2.142476668871310      0.881612844286690      2.948350542535880
C       2.458394232316990     -0.534293980120720      2.820191726614960
C       1.598284060014880     -1.485982369558980      3.294498178901030
C       0.052435601098140      0.372626264951960      4.265378583380450
C       0.370347168100250     -1.158188678127210      4.122584840509700
H      -1.820231558524410      2.287243908037640     -4.852451893919250
H       0.388650540839120      3.035130926291430     -4.680458265323470
H      -0.004391404120900      0.606058723994530      5.335262805953240
H       0.484389047589770     -1.570653600319660      5.130940371023170
H       1.344938164882630      0.928330695422170     -5.394648417021980
H       3.095283123913510      0.942897629972030     -3.849513420655710
H      -3.024504579507580      2.880248840720760     -2.971436442256830
H       0.405409722198480      3.355391696281850      3.999663255475990
