75

C      -3.717089000000000     -0.407170000000000     -0.210664000000000
C      -3.544566000000000      0.885201000000000      0.765800000000000
C      -2.862560000000000      2.007139000000000     -0.202983000000000
C      -2.911596000000000     -0.031893000000000     -1.391155000000000
C      -2.583300000000000      1.308425000000000     -1.491038000000000
C      -2.184030000000000     -1.042377000000000     -1.962577000000000
C      -3.107157000000000     -1.819298000000000      0.174936000000000
C      -2.376896000000000     -2.319044000000000     -1.223984000000000
C      -2.097734000000000     -1.762563000000000      1.298761000000000
C      -2.466823000000000      0.716436000000000      1.937045000000000
C      -1.868304000000000     -0.659523000000000      2.119862000000000
C      -1.485059000000000      2.267548000000000      0.369438000000000
C      -1.316253000000000      1.634518000000000      1.572947000000000
C      -0.368487000000000      2.682869000000000     -0.387287000000000
C      -1.523152000000000      1.648645000000000     -2.289761000000000
C      -0.540471000000000      2.757437000000000     -1.912924000000000
C      -1.099265000000000     -0.747238000000000     -2.808099000000000
C      -0.854112000000000      0.641037000000000     -3.023438000000000
C      -0.014023000000000     -1.709314000000000     -2.960178000000000
C      -1.055361000000000     -3.036830000000000     -1.075690000000000
C      -0.004081000000000     -2.878656000000000     -2.068845000000000
C      -1.227076000000000     -2.870507000000000      1.380137000000000
C      -0.736997000000000     -3.542764000000000      0.172266000000000
C      -0.200665000000000     -2.950551000000000      2.356153000000000
C      -0.735835000000000     -0.672045000000000      2.979474000000000
C       0.050082000000000     -1.844307000000000      3.166117000000000
C      -0.044188000000000      1.534711000000000      2.169309000000000
C       0.131692000000000      0.463694000000000      3.112681000000000
C       0.911826000000000      2.650999000000000      0.210160000000000
C       1.071598000000000      2.122909000000000      1.514100000000000
C       2.148213000000000      2.989013000000000     -0.642976000000000
C       0.723658000000000      2.292997000000000     -2.600617000000000
C       0.461004000000000      1.105500000000000     -3.355826000000000
C       1.961614000000000      2.472974000000000     -2.063807000000000
C       1.204307000000000     -1.233756000000000     -3.476895000000000
C       1.453197000000000      0.191306000000000     -3.640365000000000
C       2.467426000000000     -1.835408000000000     -3.127280000000000
C       1.247930000000000     -3.488878000000000     -1.801914000000000
C       2.487597000000000     -2.951880000000000     -2.310705000000000
C       0.568600000000000     -4.063876000000000      0.468112000000000
C       0.913741000000000     -3.715204000000000      1.825860000000000
C       1.539970000000000     -4.076701000000000     -0.517506000000000
C       2.218797000000000     -3.375469000000000      2.148764000000000
C       1.411897000000000     -1.460915000000000      3.473230000000000
C       1.456974000000000     -0.015130000000000      3.423010000000000
C       2.475633000000000     -2.214901000000000      2.994263000000000
C       2.457292000000000      1.927817000000000      2.131755000000000
C       2.564189000000000      0.621947000000000      2.911601000000000
C       3.373189000000000      2.206580000000000     -0.196444000000000
C       3.525594000000000      1.742889000000000      1.074403000000000
C       3.026969000000000      1.581918000000000     -2.412788000000000
C       2.799796000000000      0.471327000000000     -3.236633000000000
C       3.452579000000000     -0.785476000000000     -2.951277000000000
C       3.925605000000000      1.462537000000000     -1.293140000000000
C       4.381910000000000     -0.877994000000000     -1.920740000000000
C       4.630142000000000      0.276068000000000     -1.075559000000000
C       3.513048000000000     -3.098351000000000     -1.299090000000000
C       2.920867000000000     -3.791590000000000     -0.177997000000000
C       3.248533000000000     -3.419139000000000      1.127164000000000
C       4.422966000000000     -2.060942000000000     -1.084251000000000
C       3.646467000000000     -1.548534000000000      2.485472000000000
C       3.673887000000000     -0.146321000000000      2.446741000000000
C       4.265349000000000      0.537422000000000      1.321332000000000
C       4.819790000000000     -0.192417000000000      0.268905000000000
C       4.146972000000000     -2.303009000000000      1.351062000000000
C       4.724675000000000     -1.641747000000000      0.269823000000000
Cl     -5.421788000000000     -0.588236000000000     -0.831628000000000
Cl     -5.121244000000000      1.398579000000000      1.410237000000000
Cl     -3.787730000000000      3.547382000000000     -0.393758000000000
Cl     -1.021494000000000      4.432036000000000     -2.482409000000000
Cl      2.446759000000000      4.806139000000000     -0.575263000000000
Cl      2.822027000000000      3.385269000000000      3.225483000000000
Cl     -4.349600000000000     -2.996198000000000      0.787358000000000
Cl     -3.470100000000000     -3.428831000000000     -2.218000000000000
Cl     -3.097004000000000      1.228516000000000      3.609889000000000
