94

C       2.846277000000000      3.854779000000000      1.356516000000000
C       3.825890000000000     -0.676147000000000      1.821842000000000
C      -2.953621000000000      0.248623000000000     -2.920541000000000
C      -0.231526000000000     -3.227049000000000     -1.409457000000000
C       1.891283000000000      3.588507000000000      2.367542000000000
C       4.361342000000000      0.507190000000000      1.056934000000000
C      -3.911261000000000     -0.147932000000000     -1.795942000000000
C      -0.397752000000000     -2.437737000000000     -2.680408000000000
C       1.984356000000000      2.314339000000000      3.090359000000000
C       4.532187000000000      0.491963000000000     -0.294626000000000
C       0.638845000000000     -1.818764000000000     -3.255048000000000
C      -3.255829000000000     -1.153255000000000     -0.860495000000000
C       3.026432000000000      1.425807000000000      2.744856000000000
C      -2.309379000000000     -2.008941000000000     -1.417487000000000
C       3.976902000000000      1.724252000000000      1.717025000000000
C      -1.816377000000000     -1.947566000000000     -2.852189000000000
C       3.874960000000000      2.920846000000000      1.022285000000000
C      -1.924329000000000     -0.533760000000000     -3.392414000000000
C       4.045501000000000      2.907900000000000     -0.413890000000000
C      -0.773486000000000      0.103293000000000     -4.007839000000000
C       3.111718000000000      3.823968000000000     -0.993631000000000
C      -0.733556000000000      1.518787000000000     -4.103743000000000
C       2.459968000000000      4.501663000000000      0.113446000000000
C      -1.795876000000000      2.305858000000000     -3.556561000000000
C       1.195698000000000      5.011746000000000     -0.034128000000000
C      -2.863777000000000      1.678308000000000     -2.959935000000000
C       0.258310000000000      4.937450000000000      1.051863000000000
C      -3.471333000000000      2.235132000000000     -1.769835000000000
C       0.590130000000000      4.233274000000000      2.244002000000000
C      -4.100947000000000      1.173221000000000     -1.079473000000000
C      -0.496481000000000      3.709461000000000      2.971220000000000
C      -4.258289000000000      1.246644000000000      0.273727000000000
C      -0.362113000000000      2.513451000000000      3.786014000000000
C      -4.259110000000000      0.011671000000000      1.161099000000000
C       0.817426000000000      1.731972000000000      3.729545000000000
C      -3.352421000000000     -1.063467000000000      0.546444000000000
C       0.691577000000000      0.282524000000000      3.831723000000000
C      -2.465857000000000     -1.807378000000000      1.362009000000000
C       1.735317000000000     -0.570617000000000      3.307192000000000
C       1.955913000000000     -2.270734000000000      1.507405000000000
C       0.979461000000000     -2.892354000000000      0.735951000000000
C      -1.485142000000000     -2.633269000000000      0.774294000000000
C       2.877398000000000      0.001672000000000      2.823227000000000
C       3.030956000000000     -1.607535000000000      0.918876000000000
C       1.040461000000000     -2.858925000000000     -0.658442000000000
C      -1.433534000000000     -2.735405000000000     -0.614273000000000
C       3.135657000000000     -1.594648000000000     -0.486686000000000
C       2.131264000000000     -2.217153000000000     -1.273003000000000
C       4.197227000000000     -0.710375000000000     -1.155963000000000
C       2.073929000000000     -1.978863000000000     -2.781347000000000
C       3.620131000000000     -0.042355000000000     -2.392183000000000
C       2.651204000000000     -0.627508000000000     -3.127331000000000
C       4.327082000000000      1.704231000000000     -1.046331000000000
C       0.482675000000000     -0.544116000000000     -3.942248000000000
C       3.681468000000000      1.393361000000000     -2.281545000000000
C       1.686338000000000      0.184361000000000     -3.811262000000000
C       2.401023000000000      3.514123000000000     -2.180921000000000
C       0.475317000000000      2.260774000000000     -3.914634000000000
C       1.073070000000000      4.107605000000000     -2.346659000000000
C       0.149429000000000      3.497022000000000     -3.225927000000000
C       0.497871000000000      4.862531000000000     -1.284068000000000
C      -1.253902000000000      3.509857000000000     -2.972691000000000
C      -0.895065000000000      4.781754000000000     -0.970767000000000
C      -1.792571000000000      4.038821000000000     -1.764316000000000
C      -1.045062000000000      4.838549000000000      0.472637000000000
C      -2.917944000000000      3.365343000000000     -1.111102000000000
C      -2.101646000000000      4.178651000000000      1.131216000000000
C      -3.079596000000000      3.442601000000000      0.327588000000000
C      -1.834364000000000      3.759839000000000      2.469174000000000
C      -3.792424000000000      2.391433000000000      0.968305000000000
C      -2.556325000000000      2.667279000000000      3.068444000000000
C      -3.508948000000000      1.992302000000000      2.330322000000000
C      -1.647513000000000      1.917222000000000      3.894606000000000
C      -3.674115000000000      0.565931000000000      2.442574000000000
C      -1.765198000000000      0.522904000000000      3.940343000000000
C      -2.818873000000000     -0.151271000000000      3.222446000000000
C      -0.603710000000000     -0.279277000000000      3.948612000000000
C      -2.387753000000000     -1.555651000000000      2.869432000000000
C       1.460627000000000     -2.015128000000000      2.920236000000000
C      -0.282260000000000     -3.155147000000000      1.545431000000000
C      -0.933532000000000     -1.554552000000000      3.323931000000000
C      -0.000908000000000     -2.331393000000000      2.769908000000000
C       2.707196000000000      2.249439000000000     -2.854868000000000
C       1.703728000000000      1.616747000000000     -3.697110000000000
Cl     -0.290425000000000     -5.048449000000000     -1.708530000000000
Cl     -0.495002000000000     -4.946577000000000      1.939056000000000
Cl     -3.379068000000000     -2.827092000000000      3.761756000000000
Cl     -5.950543000000000     -0.675283000000000      1.409713000000000
Cl      2.916090000000000     -3.352334000000000     -3.673746000000000
Cl      5.692774000000000     -1.722278000000000     -1.531050000000000
Cl     -5.496106000000000     -0.813401000000000     -2.458757000000000
Cl     -2.783733000000000     -3.107171000000000     -3.940463000000000
Cl      5.189024000000000     -1.589714000000000      2.662983000000000
Cl      2.246456000000000     -3.171365000000000      4.149881000000000
