74

C      -1.314342925982230      1.864882813587310     -3.904648074165230
C       0.200298358079070      2.195537993972860     -3.961078066175010
C       0.952229816164140      0.877051793511440     -4.264836015670250
C      -1.494143099984720      0.359688531467500     -4.227363781925010
C      -0.101396380850770     -0.174646326229770     -4.144613325322860
C      -2.459711630485520     -0.224988702629920     -3.147313696695210
C      -1.884499246316760      2.002107602740880     -2.528294752601260
C      -2.599802390133110      0.891428760884510     -2.153040183590730
C      -1.412345489806520      2.921035461769130     -1.557875376574950
C       0.749109845202140      2.621676424478800     -2.629587402799680
C       0.002485148606140      3.242653958492780     -1.608848776136470
C       1.886167267101950      0.674823221324180     -3.088426806386670
C       1.854430027375030      1.847643503421590     -2.274671355476750
C       2.199583767138360     -0.530034954753550     -2.535138924630840
C       0.190351574018870     -1.347807346460620     -3.591505418465260
C       1.598621737625870     -1.766065478671600     -3.194936859271020
C      -1.961060527107380     -1.428694975046450     -2.383063658214370
C      -0.782776411127040     -2.043280763336820     -2.787130545519480
C      -2.461695999336380     -1.708977859971340     -1.080660629521720
C      -3.041229364280650      0.681059698379780     -0.828847669051440
C      -3.086375062721060     -0.660499868714260     -0.287549784527300
C      -2.035947221253720      2.864202230904990     -0.308815556404240
C      -2.901084513361790      1.778369191480870      0.033695610783360
C      -1.388191526283740      3.295937846457700      0.902632554434520
C       0.665750131243070      3.461748630323220     -0.386679489579760
C      -0.037683874110240      3.592392149059490      0.863303155965290
C       2.417413323192640      1.860984823670250     -0.980141672936970
C       1.916314442970240      2.838119754568430     -0.103401078815270
C       2.801217010224050     -0.577001974725270     -1.224908528826250
C       2.988267327720420      0.647006910110860     -0.469781686798430
C       2.829073787453170     -1.785421008433700     -0.541022207649720
C       1.375850707560220     -3.020405905697920     -2.299518297793330
C      -0.097468100533260     -2.975127613883910     -1.996511533707290
C       2.225201719174500     -3.093520598502830     -1.010338957268160
C      -1.876877607623480     -2.791357177560470     -0.386312455590660
C      -0.680645262177190     -3.411806059802570     -0.843206603485690
C      -1.882401975354180     -2.885729737235470      1.042922515386060
C      -3.120669889576530     -0.794376456767330      1.105262505345920
C      -2.505131526097230     -1.904385691772730      1.783230290814170
C      -2.867409642553750      1.610302331191600      1.454802702742200
C      -1.922269549597760      2.542454743815390      2.006022610854650
C      -2.994103204587160      0.341277654271090      1.983031630954060
C      -1.108633169042960      2.150268514372520      3.061402487217540
C       0.818406578797810      3.143447060343770      1.930389449141330
C       2.032581727959450      2.680997386511120      1.317170626314520
C       0.298838489254970      2.457931177712820      3.022702906290600
C       3.201941288874070      0.573948563710630      0.917325247535810
C       2.693825620639570      1.578569491702160      1.818916200432300
C       2.940216428911200     -1.829021819896870      0.867623425016890
C       3.145587215884310     -0.669836054620410      1.601225303918650
C       1.476124656722430     -3.497344963424010      0.255067356073130
C       0.131519356632160     -3.766570229083070      0.309766819967150
C      -0.634296338001650     -3.456660290711010      1.480527415102350
C       2.081044892759830     -2.866863733626550      1.380684340857650
C      -0.018875941513690     -2.948614504149970      2.620747302345560
C       1.380988713457480     -2.642037139199300      2.565297707970170
C      -1.909814156600650     -1.438028246473950      3.008621547500730
C      -2.211068930230850     -0.039616873358530      3.130250410770420
C      -1.262378183185960      0.840822509767310      3.641401525061910
C      -0.670250554377700     -1.929319608878400      3.402182819198290
C       1.011400655422170      1.336857713687340      3.578502288500980
C       2.207784977944130      0.920881651855060      3.003847552460050
C       2.499454259473920     -0.481555907042890      2.874150665568010
C       1.599463682278370     -1.434646090866810      3.326265908559120
C       0.045619522317700      0.346392614169940      3.990856052664970
C       0.335455664617820     -1.007791907505920      3.871430905151020
H      -1.864600448438600      2.503458092831840     -4.601070585038000
H       0.390984972302090      2.966278745312340     -4.711840258780450
H       1.477267544140910      0.877012466840510     -5.222655777501600
H       2.196204178327260     -2.020794033091130     -4.076296603566720
H       1.590820817556030     -3.913330946503930     -2.897339529300380
H       3.043931358259210     -3.805213787912940     -1.176693413081660
H      -1.906989840216420      0.202404726859330     -5.227176064573460
H      -3.421333049023810     -0.473933171836020     -3.610557654444580
