62

C      -1.305909905216210      0.000000006456940      3.577552549474720
C      -0.382631431365270     -1.166117707158050      3.285963618227950
C       0.972569669539630     -0.719525099098940      3.268540933703900
C       0.972569670727220      0.719525095411670      3.268540934367580
C      -0.382631426660210      1.166117712385400      3.285963616853080
C       2.335242390471540     -2.581790913735870      0.582973167575590
C       3.184010030895910     -1.415519019063120      0.583553353436650
C       2.945457520532720     -0.693320996616510      1.807730126232660
C       1.945874845251050     -1.414275124289040      2.557131558951810
C       1.575080836592180     -2.577109434385860      1.805846686819560
C       3.184010037875740      1.415518996792770      0.583553354419520
C       2.335242405977810      2.581790897330090      0.582973167060290
C       1.575080851880150      2.577109424304740      1.805846685977520
C       1.945874852072850      1.414275112592750      2.557131559707080
C       2.945457521760570      0.693320976990130      1.807730128068520
C      -0.362886011055800      3.437180580236480      0.578774829834970
C      -1.733084644928000      2.992756700772520      0.574666823818580
C      -1.977811818922310      2.274947201373610      1.793917017676880
C      -0.737060608310210      2.274924610632690      2.564869703043290
C       0.247678096484040      2.992733679862410      1.805416646593380
C      -3.365951091513280      0.719526861215190      0.572802171852080
C      -3.365951085614700     -0.719526831046400      0.572802164429580
C      -2.781381068049490     -1.166212891737930      1.795536626646190
C      -2.633860829789940      0.000000012279620      2.752461798156050
C      -2.781381077612350      1.166212921701870      1.795536637959970
C      -1.733084662462100     -2.992756687891270      0.574666823068420
C      -0.362886033274150     -3.437180577788760      0.578774831310750
C       0.247678078068310     -2.992733680271630      1.805416648031140
C      -0.737060620726730     -2.274924603011290      2.564869704152530
C      -1.977811829033780     -2.274947182906040      1.793917015134660
C      -0.239961046383130     -3.007450610611330     -1.830584489474390
C       0.752988719683170     -2.288428327085320     -2.584262580805040
C       1.978739500766100     -2.288449168443630     -1.822633308647510
C       1.742835095295190     -3.007471133662690     -0.598570091094580
C       0.369232872792670     -3.448133390831370     -0.599467506342450
C       2.796191640781150     -1.165928467321620     -1.822839667359280
C       2.417661923296750     -0.000000009549880     -2.580767517673230
C       2.796191646779880      1.165928445758440     -1.822839666925180
C       3.409842791416370      0.721113163712960     -0.597227803801920
C       3.409842790851570     -0.721113188853000     -0.597227805593930
C       1.978739515224600      2.288449152611880     -1.822633308832970
C       0.752988733749360      2.288428319248020     -2.584262581429680
C      -0.239961027229160      3.007450609169020     -1.830584490073590
C       0.369232894794260      3.448133386947760     -0.599467507740750
C       1.742835114566500      3.007471120249290     -0.598570092343840
C      -1.561685130854570      2.581801872361340     -1.838387309018260
C      -1.938129471504290      1.415536171117760     -2.599106647460810
C      -2.930028152903420      0.693322283473780     -1.843043733421240
C      -3.159201246020570      1.414266475146650     -0.614930462393770
C      -2.321397141872560      2.577106608848910     -0.615236631877140
C      -2.930028156619650     -0.693322265615820     -1.843043740423790
C      -1.938129479369610     -1.415536161896060     -2.599106651746700
C      -1.561685146879010     -2.581801863867520     -1.838387309588440
C      -2.321397157152520     -2.577106592946150     -0.615236632985730
C      -3.159201251456110     -1.414266451936080     -0.614930466567810
C      -0.979502613991860     -0.721106461840890     -3.324534021734280
C      -0.979502611051100      0.721106464963290     -3.324534018537940
C       0.391148174965160      1.165795291848210     -3.317136715380310
C       1.238401413917300     -0.000000005634050     -3.313464433052720
C       0.391148168812590     -1.165795297725440     -3.317136716205460
Cl     -1.610647349202630      0.000000016133150      5.363939702143410
Cl     -4.100461633255610     -0.000000041194260      3.816901260529010
