63
This file is for visualization only.
C      -1.319784225916740     -0.008643483708510      3.540580693375510
C      -0.407917674481940     -1.194944625333840      3.308033564728620
C       1.025053288686920     -0.770119644833290      3.550951109317350
C       0.908401192213320      0.689903817254540      3.172626280424830
C      -0.364572220595910      1.103297978768320      3.167004981072400
C       2.293501341851720     -2.559664287434690      0.572307649889460
C       3.126294579197870     -1.386607434736600      0.576179528092450
C       2.896869784330840     -0.675196175232840      1.795136436943860
C       2.108380927343530     -1.548849974120560      2.748279705051050
C       1.554532234023140     -2.575940663058270      1.787743585386470
C       3.127775153414430      1.396107251840080      0.569470537809340
C       2.289642217576050      2.565358807153480      0.563894501234560
C       1.548677765813940      2.597523189931140      1.783601764568810
C       2.057640136992260      1.520501580113390      2.716927387819720
C       2.911052680355190      0.687974625450760      1.791685798631700
C      -0.359542688209600      3.425670452870990      0.552205560604740
C      -1.724738662883670      2.971940495485140      0.548058822532690
C      -1.975168806693790      2.274752968224130      1.770123107738500
C      -0.802872542696540      2.449445024400730      2.704306165502760
C       0.249187629443920      3.019526394381670      1.777865427407950
C      -3.358488391329100      0.719291945185050      0.547558156211180
C      -3.373773405899490     -0.719244916049790      0.547287186912370
C      -2.795087424949460     -1.163422101119770      1.768533560876220
C      -2.647491321984000     -0.004410090521940      2.727285552005440
C      -2.764615002112370      1.163343264479740      1.770151514943010
C      -1.732565407716480     -2.980579447537120      0.556603439939630
C      -0.363164626822600     -3.425284096694940      0.562650510414450
C       0.249532761083700     -2.987140756188520      1.781880674263660
C      -0.748228722018100     -2.253113340051740      2.555613930409950
C      -1.980663884721860     -2.262897834649470      1.772033112158600
C      -0.246529826725400     -3.014584116363000     -1.855483773830550
C       0.747570424153670     -2.295472300786800     -2.611333775756920
C       1.968347537321590     -2.291054019318350     -1.846249643936420
C       1.724710090353930     -3.004718870073540     -0.618748780752640
C       0.363322054048800     -3.450420849013710     -0.623410211164850
C       2.783394592064740     -1.167751835197540     -1.845341622571850
C       2.411206802946600     -0.004556011671380     -2.609634055941510
C       2.783783089135560      1.163168945151430     -1.851843776336910
C       3.378001190349940      0.717331313993680     -0.617249827606280
C       3.376746815626830     -0.713323789121660     -0.612871287356700
C       1.969339739222500      2.285931973455790     -1.857425611698350
C       0.748490129593450      2.285450535960540     -2.622076850059560
C      -0.245205836991500      3.005095863900590     -1.867195883547980
C       0.363898860243110      3.444470642013950     -0.636440843240170
C       1.724787043529100      3.002527027335610     -0.630435829976340
C      -1.563915217507780      2.575060511993700     -1.871027440290450
C      -1.942438659375870      1.409269313214710     -2.628847813406960
C      -2.933101061638290      0.688647840005130     -1.870570614890010
C      -3.156083908046700      1.408178349229430     -0.641703653663940
C      -2.316533337586530      2.566603952020490     -0.642378030152830
C      -2.933540850207510     -0.699194781104930     -1.867889494145420
C      -1.942206469571240     -1.421982262519130     -2.623205853453390
C      -1.566335990788530     -2.585986913934980     -1.861311268972310
C      -2.325713202826680     -2.577171418462670     -0.635282511027870
C      -3.165490123009040     -1.416654423437940     -0.640337598683610
C      -0.984096022623140     -0.727813858745690     -3.352862630369970
C      -0.984119389602740      0.713308042786110     -3.356489441445350
C       0.385987250539260      1.159246888988880     -3.352640036276290
C       1.232673715657210     -0.006583412281690     -3.346699071707510
C       0.385963984495390     -1.172739539981760     -3.346824369010330
Cl     -1.640422251108800      0.160927131127920      5.313775264471470
Cl     -4.115776654807960     -0.007487251831780      3.780685316848180
Cl      2.973794509990540      2.176977990261310      4.124624398095600
