62

C      -1.314670228491532      0.000000124774638      3.596796185193860
C      -0.394838359857906     -1.154076113057361      3.295840720140916
C       0.967015098879019     -0.712775682068682      3.268388869401089
C       0.967015074009640      0.712775571170941      3.268388906007993
C      -0.394838568043246      1.154076067111061      3.295840774881170
C       2.327769919032537     -2.563864590938592      0.571688485529920
C       3.181068365639042     -1.408579778583647      0.569841902577665
C       2.925732730949939     -0.691238863999469      1.796243714022765
C       1.928721178561147     -1.400291073613936      2.543652643548615
C       1.566760566584984     -2.558039436781846      1.790230693857650
C       3.181068353147114      1.408579764303739      0.569841894974682
C       2.327770055290499      2.563864500779801      0.571688433887751
C       1.566760608629266      2.558039317854391      1.790230684725959
C       1.928721289148111      1.400291063139529      2.543652747565507
C       2.925732799780439      0.691238771613775      1.796243677201599
C      -0.364350472742215      3.407997736372039      0.582049260198278
C      -1.725861707544728      2.958167182664441      0.575850296311690
C      -1.979914889793041      2.251276732005529      1.795157695141418
C      -0.735953299987667      2.251556143328899      2.569535608686158
C       0.244421633308254      2.958880683982721      1.800390184711516
C      -3.359533019667578      0.712730320551205      0.577211105939284
C      -3.359533039483904     -0.712730255862263      0.577210950867485
C      -2.783416283649749     -1.154583164781540      1.810612032839223
C      -2.646836712581369      0.000000061209406      2.768472168587540
C      -2.783416392343586      1.154583011843101      1.810611975471373
C      -1.725861534915941     -2.958167220728064      0.575850302144718
C      -0.364350462732251     -3.407997632321005      0.582049267683707
C       0.244421710029607     -2.958880594635183      1.800390212230448
C      -0.735953164688141     -2.251556191002023      2.569535620228453
C      -1.979914990107179     -2.251276612892933      1.795157773429470
C      -0.233324951715160     -2.992156903345843     -1.830649499332305
C       0.757809649506350     -2.280336278508841     -2.586315010570658
C       1.977477739674033     -2.280345337627394     -1.828160810266748
C       1.739514061478783     -2.992282655826106     -0.604796908711994
C       0.366746733621994     -3.421137229324947     -0.595781081865338
C       2.795117757260960     -1.162841062172615     -1.829192363592446
C       2.417302427454691     -0.000000082702481     -2.586068835857366
C       2.795117713242563      1.162841133828200     -1.829192479912672
C       3.405513953275267      0.720138982025854     -0.606233374156834
C       3.405513957268721     -0.720138977985416     -0.606233445334820
C       1.977477816322543      2.280345467083030     -1.828160777937328
C       0.757809587032458      2.280336371823157     -2.586314997158493
C      -0.233324846063493      2.992157003042206     -1.830649390973709
C       0.366746726561198      3.421137212540837     -0.595781132604798
C       1.739514201528442      2.992282460350312     -0.604796957857730
C      -1.548817892214598      2.563946195836435     -1.836877316122640
C      -1.924923242297334      1.408498782234029     -2.602974452517143
C      -2.911250699122723      0.691227891330334     -1.830551695068088
C      -3.138101953135306      1.400743246553607     -0.605930549831898
C      -2.303538302797723      2.558741274128210     -0.614495239166145
C      -2.911250930732772     -0.691227877951711     -1.830551476666281
C      -1.924923257238722     -1.408498987669726     -2.602974426767678
C      -1.548817831160672     -2.563946116489104     -1.836877218019932
C      -2.303538354748783     -2.558741293336444     -0.614495425263246
C      -3.138101936842745     -1.400743166130133     -0.605930443454033
C      -0.970321542655304     -0.720164834239550     -3.326020581962079
C      -0.970321529033330      0.720164908357536     -3.326020621979616
C       0.396602579015260      1.162987890412334     -3.320428219627692
C       1.242517632204621     -0.000000034680040     -3.316694912845968
C       0.396602623247891     -1.162987892060788     -3.320428233879869
Cl     -1.643957983575543      0.000000056021815      5.386035615771196
Cl     -4.109061116179137     -0.000000003041914      3.851035412270972
