96

C       0.587602000000000      1.011085000000000     -3.850565000000000
C      -3.484051000000000     -0.815067000000000     -2.550825000000000
C       1.317838000000000      0.372364000000000      4.005682000000000
C      -2.950263000000000     -1.273204000000000      3.156298000000000
C       0.944202000000000     -0.387809000000000     -3.958926000000000
C      -2.933524000000000      0.542869000000000     -2.919713000000000
C       1.663065000000000     -1.010092000000000      3.819425000000000
C      -2.344427000000000      0.016606000000000      3.659070000000000
C      -0.027073000000000     -1.419782000000000     -3.786070000000000
C      -3.146517000000000      1.669504000000000     -2.146885000000000
C      -2.686103000000000      1.224587000000000      3.136287000000000
C       0.669371000000000     -2.012281000000000      3.665965000000000
C      -1.371776000000000     -0.995207000000000     -3.684066000000000
C      -0.677645000000000     -1.590190000000000      3.872159000000000
C      -1.734844000000000      0.405999000000000     -3.634190000000000
C      -1.017317000000000     -0.221662000000000      4.130563000000000
C      -0.750347000000000      1.429524000000000     -3.629324000000000
C      -0.032687000000000      0.801592000000000      4.107911000000000
C      -0.990441000000000      2.610530000000000     -2.837738000000000
C      -0.387379000000000      2.089546000000000      3.558781000000000
C       0.142421000000000      3.284915000000000     -2.300590000000000
C       0.629293000000000      2.844372000000000      2.924803000000000
C       1.451890000000000      2.817669000000000     -2.520951000000000
C       1.971237000000000      2.375523000000000      2.837631000000000
C       1.679671000000000      1.713690000000000     -3.307300000000000
C       2.311554000000000      1.174000000000000      3.379833000000000
C       2.848072000000000      0.781888000000000     -3.060617000000000
C       3.402830000000000      0.312263000000000      2.780432000000000
C       2.269908000000000     -0.541566000000000     -3.518074000000000
C       2.897985000000000     -1.073245000000000      3.119091000000000
C       2.663386000000000     -1.731597000000000     -2.970735000000000
C       3.169359000000000     -2.147914000000000      2.336870000000000
C       1.747173000000000     -2.803242000000000     -2.851961000000000
C       2.228336000000000     -3.213514000000000      2.224378000000000
C       0.360100000000000     -2.660986000000000     -3.166918000000000
C       0.928937000000000     -3.144315000000000      2.810198000000000
C      -0.621607000000000     -3.422068000000000     -2.403989000000000
C      -0.180644000000000     -3.796728000000000      2.123592000000000
C      -1.955627000000000     -2.898874000000000     -2.281306000000000
C      -3.522947000000000     -2.127967000000000     -0.470730000000000
C      -3.340507000000000     -2.224629000000000      0.915601000000000
C      -1.529298000000000     -3.265155000000000      2.304854000000000
C      -2.312174000000000     -1.735201000000000     -2.941956000000000
C      -3.763157000000000     -0.901626000000000     -1.063689000000000
C      -3.471994000000000     -1.114771000000000      1.741840000000000
C      -1.749405000000000     -2.223550000000000      3.208900000000000
C      -3.914342000000000      0.252506000000000     -0.242012000000000
C      -3.781390000000000      0.135086000000000      1.159298000000000
C      -3.991951000000000      1.637838000000000     -0.895627000000000
C      -3.713643000000000      1.386297000000000      2.029201000000000
C      -3.310699000000000      2.703180000000000     -0.072306000000000
C      -3.143132000000000      2.558821000000000      1.253967000000000
C      -2.211823000000000      2.711298000000000     -2.120212000000000
C      -1.716992000000000      2.280521000000000      3.065758000000000
C      -2.397043000000000      3.568335000000000     -0.896145000000000
C      -1.998826000000000      3.100738000000000      1.946783000000000
C       0.074953000000000      3.877238000000000     -0.976441000000000
C       0.349740000000000      3.642377000000000      1.765908000000000
C       1.373896000000000      3.777563000000000     -0.396418000000000
C       1.512032000000000      3.674131000000000      0.951054000000000
C       2.356315000000000      3.131334000000000     -1.346653000000000
C       2.645253000000000      2.894552000000000      1.582811000000000
C       2.924489000000000      1.831549000000000     -0.731926000000000
C       3.063858000000000      1.719154000000000      0.671691000000000
C       3.173038000000000      0.709468000000000     -1.553989000000000
C       3.446612000000000      0.487274000000000      1.245901000000000
C       3.574973000000000     -0.521655000000000     -0.979756000000000
C       3.711589000000000     -0.632754000000000      0.421519000000000
C       3.710396000000000     -1.778573000000000     -1.872289000000000
C       3.993180000000000     -2.010466000000000      1.068551000000000
C       3.298339000000000     -3.027597000000000     -1.123045000000000
C       3.429788000000000     -3.135227000000000      0.227977000000000
C       2.185925000000000     -3.649502000000000     -1.778377000000000
C       2.453438000000000     -3.874992000000000      0.975805000000000
C       1.258445000000000     -4.411099000000000     -1.081637000000000
C       1.400348000000000     -4.526632000000000      0.345462000000000
C      -0.142647000000000     -4.339971000000000     -1.403781000000000
C       0.087435000000000     -4.504770000000000      0.925534000000000
C      -2.874793000000000     -3.335262000000000     -1.153501000000000
C      -2.449235000000000     -3.352726000000000      1.206544000000000
C      -0.853480000000000     -4.512162000000000     -0.175146000000000
C      -2.116727000000000     -3.950396000000000      0.004071000000000
C      -1.089271000000000      3.880466000000000     -0.208367000000000
C      -0.956690000000000      3.735894000000000      1.210434000000000
Cl      4.337469000000000      1.277843000000000     -4.010956000000000
Cl      5.428877000000000     -1.896473000000000     -2.514841000000000
Cl      5.799226000000000     -2.202475000000000      1.353084000000000
Cl      5.045748000000000      0.674565000000000      3.514128000000000
Cl      3.737982000000000      4.254767000000000     -1.800549000000000
Cl      4.103238000000000      3.947850000000000      1.952257000000000
Cl     -5.764493000000000      2.031751000000000     -1.262931000000000
Cl     -5.382631000000000      1.767310000000000      2.711363000000000
Cl     -4.992224000000000     -1.222832000000000     -3.527316000000000
Cl     -4.150190000000000     -4.515979000000000     -1.797821000000000
Cl     -4.304016000000000     -1.873027000000000      4.272468000000000
Cl     -3.246219000000000      5.218540000000000     -1.364306000000000
