73

C      -3.277731000000000     -2.257465000000000     -0.015715000000000
C      -3.412329000000000     -1.346309000000000      1.255009000000000
C      -3.554797000000000      0.155041000000000      0.682292000000000
C      -3.122195000000000     -1.271784000000000     -1.131011000000000
C      -3.330202000000000      0.006109000000000     -0.781017000000000
C      -2.113674000000000     -1.707973000000000     -2.054640000000000
C      -1.980904000000000     -3.027900000000000     -0.143576000000000
C      -1.443837000000000     -2.816494000000000     -1.445546000000000
C      -1.112710000000000     -3.285232000000000      0.932196000000000
C      -2.114316000000000     -1.306919000000000      2.011639000000000
C      -1.192843000000000     -2.360222000000000      2.089105000000000
C      -2.317364000000000      0.848361000000000      1.218303000000000
C      -1.662307000000000      0.018959000000000      2.165475000000000
C      -1.605881000000000      1.824461000000000      0.562752000000000
C      -2.821474000000000      1.104815000000000     -1.633789000000000
C      -2.088100000000000      2.294419000000000     -0.814816000000000
C      -1.375355000000000     -0.738171000000000     -2.782696000000000
C      -1.737003000000000      0.612384000000000     -2.576867000000000
C      -0.024162000000000     -1.069441000000000     -3.228478000000000
C      -0.090060000000000     -3.120254000000000     -1.766655000000000
C       0.615672000000000     -2.297596000000000     -2.744048000000000
C       0.154424000000000     -3.810186000000000      0.597606000000000
C       0.633919000000000     -3.797092000000000     -0.762156000000000
C       1.313263000000000     -3.660701000000000      1.457571000000000
C       0.009846000000000     -2.075542000000000      2.791127000000000
C       1.245188000000000     -2.809466000000000      2.547544000000000
C      -0.370244000000000      0.332847000000000      2.643916000000000
C       0.371882000000000     -0.752957000000000      3.156486000000000
C      -0.304410000000000      2.205992000000000      1.072730000000000
C       0.278525000000000      1.513013000000000      2.132565000000000
C       0.499520000000000      3.271683000000000      0.315280000000000
C      -0.881842000000000      2.577290000000000     -1.678032000000000
C      -0.789554000000000      1.636553000000000     -2.756127000000000
C       0.265317000000000      3.119593000000000     -1.180309000000000
C       0.800314000000000     -0.005651000000000     -3.649233000000000
C       0.430783000000000      1.359690000000000     -3.369789000000000
C       2.238490000000000     -0.079037000000000     -3.575225000000000
C       2.028453000000000     -2.373718000000000     -2.760987000000000
C       2.843384000000000     -1.249408000000000     -3.149457000000000
C       2.073061000000000     -3.763421000000000     -0.735452000000000
C       2.509629000000000     -3.681226000000000      0.639444000000000
C       2.756942000000000     -3.089622000000000     -1.731922000000000
C       3.613113000000000     -2.898891000000000      0.967907000000000
C       2.364748000000000     -1.951003000000000      2.859432000000000
C       1.822510000000000     -0.670678000000000      3.239173000000000
C       3.542305000000000     -2.010435000000000      2.110948000000000
C       1.712307000000000      1.782035000000000      2.588413000000000
C       2.466259000000000      0.491559000000000      2.904066000000000
C       1.995576000000000      3.023565000000000      0.422174000000000
C       2.556629000000000      2.365127000000000      1.474998000000000
C       1.516112000000000      2.910150000000000     -1.851350000000000
C       1.603315000000000      2.079005000000000     -2.972428000000000
C       2.744364000000000      1.204400000000000     -3.134728000000000
C       2.580978000000000      2.909616000000000     -0.880610000000000
C       3.807017000000000      1.255697000000000     -2.238269000000000
C       3.729169000000000      2.138293000000000     -1.086728000000000
C       4.009410000000000     -1.197391000000000     -2.292252000000000
C       3.955800000000000     -2.340990000000000     -1.409411000000000
C       4.358360000000000     -2.222530000000000     -0.079023000000000
C       4.463467000000000      0.035142000000000     -1.819717000000000
C       4.229790000000000     -0.791711000000000      1.771747000000000
C       3.690154000000000      0.437926000000000      2.170079000000000
C       3.743520000000000      1.582882000000000      1.288688000000000
C       4.334727000000000      1.468225000000000      0.028944000000000
C       4.769586000000000     -0.927649000000000      0.428532000000000
C       4.820345000000000      0.173452000000000     -0.419357000000000
Cl     -4.679962000000000     -3.387847000000000     -0.326081000000000
Cl     -4.694812000000000     -1.840640000000000      2.419816000000000
Cl     -5.062659000000000      1.059277000000000      1.116575000000000
Cl     -3.104251000000000      3.787815000000000     -0.578483000000000
Cl      0.059799000000000      4.943530000000000      0.959280000000000
Cl      1.663882000000000      2.893408000000000      4.074707000000000
Cl     -4.220191000000000      1.730381000000000     -2.680423000000000
