70

C      -1.313884507349030      1.862697950371740     -3.889947706696700
C       0.194606589019510      2.204865633513390     -3.972981932709700
C       0.967389470129810      0.900277382707820     -4.352355179353200
C      -1.335930418289400      0.366707139695300     -3.944236766143460
C      -0.075412686024190     -0.158447175869730     -4.164490426590270
C      -2.204987727456070     -0.175071531523680     -2.990710975126920
C      -1.973908191280200      2.082543009278210     -2.554351864658280
C      -2.659245355898530      0.917920013255140     -2.162957244543570
C      -1.466100491764700      2.946155981416210     -1.570482267533720
C       0.725281238842430      2.555222170914580     -2.622645405752710
C      -0.033460500949430      3.205883498747390     -1.614191791267990
C       2.138228653595570      0.754701545319900     -3.319251235535570
C       1.846246155474050      1.826438699060930     -2.308007284407190
C       2.260835096013180     -0.562961488562450     -2.571975469407440
C       0.197408492192600     -1.385680605247000     -3.608158742519630
C       1.474855515161900     -1.635884038959730     -2.951780202486280
C      -1.975889570697830     -1.447878004064080     -2.425750290381030
C      -0.801231498435740     -2.098453461269640     -2.881935693534230
C      -2.480515430705480     -1.735467188041400     -1.097954335568510
C      -3.082309244621400      0.684421654093600     -0.837001884049080
C      -3.078384171561800     -0.667430405760730     -0.311648500984520
C      -2.079714183723450      2.869413437580030     -0.306266323308390
C      -2.942721229779930      1.782970114731240      0.033799955977040
C      -1.408858974865690      3.280913431788690      0.898614869873680
C       0.634202849219260      3.416655587660770     -0.406702412297890
C      -0.055416241817480      3.565864907580740      0.848860292163020
C       2.413457466766510      1.828346025886580     -1.017751855980090
C       1.887949744521350      2.784886444427910     -0.135458120923420
C       2.901265626381860     -0.593200040512490     -1.280528166288730
C       3.047383518073330      0.633443086633400     -0.505504452175970
C       2.890114766999820     -1.807889586724600     -0.561123780762460
C       1.278438832902180     -2.757579696899340     -2.091821472346520
C      -0.129570168827240     -3.045214073048420     -2.046180366363550
C       2.038105936214670     -2.893520868236440     -0.949265433289160
C      -1.921413863586540     -2.829856741980870     -0.412234311634410
C      -0.708550264144750     -3.465031835381780     -0.871366045691700
C      -1.903366007054280     -2.907363316781480      1.014184503234690
C      -3.120037858902700     -0.806231610220310      1.086668659503870
C      -2.511156631700360     -1.914267933633520      1.757854561676790
C      -2.886627389098590      1.600425151553480      1.453926983640110
C      -1.934913536381760      2.528605543736370      2.004664141896340
C      -3.000319037360110      0.327906575462400      1.972080353623770
C      -1.112067734215010      2.131884528696470      3.050914221385290
C       0.809260161293190      3.114193899387200      1.904570581581070
C       2.018117997068000      2.643796146301820      1.281458204121670
C       0.296749666804830      2.434469470904330      3.001555462835530
C       3.223019439380290      0.554266247515780      0.882224377287750
C       2.691349499114190      1.549365312592660      1.781759284249930
C       2.990484668511500     -1.860510702639710      0.869651781084950
C       3.174315962700890     -0.697297141149120      1.584882844242480
C       1.475305319086910     -3.492610359613390      0.232048154860110
C       0.112422800454300     -3.777123153197470      0.270123134505090
C      -0.646322313004660     -3.468822528536470      1.448546249660570
C       2.104123693043630     -2.882924670707880      1.370371484100580
C      -0.021477963471260     -2.960602894093430      2.579494824325610
C       1.387611326146940     -2.658686631541310      2.538709276186060
C      -1.910596045193420     -1.454335668837840      2.983379566653760
C      -2.212704611257480     -0.055647584988840      3.114523062257260
C      -1.262920868822560      0.821108669459210      3.627279519008830
C      -0.670061018499480     -1.944245075657440      3.368951535832800
C       1.013441105804820      1.311603988834580      3.549902990423840
C       2.208311001764010      0.896406642584110      2.970435921065570
C       2.507026851072460     -0.503052578524690      2.846898710503600
C       1.603015599788730     -1.454595256582090      3.300637658174010
C       0.048557926745020      0.324637887769260      3.967301764170570
C       0.337333380671060     -1.028388012581470      3.843305949170300
H      -1.877423346226930      2.351671358699530     -4.688338728191610
H       0.375299859564160      3.015942093106750     -4.681960304652500
H       1.357565310677840      0.925120390060890     -5.371148125596780
H       3.092928380732970      0.943999083415120     -3.825286466195990
