71

C      -1.303832379495820      1.868799568303220     -3.921661370673460
C       0.213668331565250      2.205025580645490     -3.968773883338620
C       0.963483470163230      0.886929097899970     -4.262788230921600
C      -1.487941847223040      0.364544373792610     -4.258918123498960
C      -0.098642423282930     -0.160788661287990     -4.156848407483900
C      -2.454407022465880     -0.235081074032650     -3.179176774600380
C      -1.870941799349950      1.989631154578360     -2.544947212697200
C      -2.581123124968640      0.873155824360180     -2.175535885521210
C      -1.398079954274250      2.905044968838990     -1.572592433230360
C       0.768469675855980      2.633133853739250     -2.641528886710970
C       0.017505496712790      3.228794523151430     -1.619563808818720
C       1.936862453048030      0.719569658965910     -3.117906555403480
C       1.894737614227940      1.856930206918870     -2.293830917759870
C       2.272528760901690     -0.519140359935590     -2.550291310825540
C       0.182086978050190     -1.335007271607630     -3.584310903932690
C       1.463376408170180     -1.617959080509450     -2.950713697442510
C      -1.981281300142160     -1.468692817461060     -2.434339400901280
C      -0.830043713101630     -2.100224524934370     -2.861378894347900
C      -2.476672172448020     -1.751417442298680     -1.114886065561180
C      -3.023075910018940      0.656658327106760     -0.853520190149770
C      -3.073739155036950     -0.687255467061090     -0.317886815367300
C      -2.022357101025040      2.842423573933520     -0.326085740723800
C      -2.886325689301200      1.754484055182740      0.010480874246860
C      -1.378618567095000      3.275900558948940      0.887543332336740
C       0.680957103581850      3.444221687616560     -0.393781518522820
C      -0.024800196688280      3.570899783799760      0.849500877718960
C       2.464172173834900      1.862272652822980     -0.991496836663210
C       1.937871133872740      2.820541163390150     -0.111403000706360
C       2.915775684333470     -0.564848039938010     -1.249999268002970
C       3.062298184765940      0.654714111340540     -0.483676024126770
C       2.900610594937810     -1.787920656848720     -0.549260782387660
C       1.275445428379470     -2.723200749901270     -2.096845455350850
C      -0.134046916085910     -3.033675378600480     -2.046145337169150
C       2.043430685528480     -2.867534318952080     -0.948738261748030
C      -1.906536904543590     -2.839052610778790     -0.416506706760890
C      -0.702751140160340     -3.468163413935490     -0.868515260459900
C      -1.891779053159570     -2.914649659958460      1.016168892646240
C      -3.111506284761770     -0.815946097838580      1.076563936268520
C      -2.502303418897210     -1.925450470355690      1.756370828080860
C      -2.857477114889700      1.588976016316800      1.431590065158950
C      -1.915473516839520      2.523848861281300      1.986864504764940
C      -2.985569124081340      0.320218664953660      1.956430979217820
C      -1.102677054385930      2.129660936396870      3.043963476816540
C       0.829318921133080      3.120956696393600      1.917328551486000
C       2.047768517880390      2.661930846154950      1.306740504176840
C       0.305264086045570      2.435666147811650      3.005507655619620
C       3.244809089849660      0.567699043207350      0.913337355649980
C       2.712314474151790      1.559366387672470      1.808600849629710
C       2.999264325515240     -1.848145091300810      0.879250813612020
C       3.185420574337020     -0.686045287452980      1.602011021584460
C       1.483157312502940     -3.474199159002740      0.229376518249810
C       0.124274159897580     -3.776663981715230      0.273112938467550
C      -0.634971485800750     -3.473814858519240      1.451108526015350
C       2.111649290673190     -2.871624394025640      1.372435340253560
C      -0.011867331314840     -2.962157355310090      2.584883771463530
C       1.395466653086910     -2.654904045775550      2.543057071894010
C      -1.904401328385020     -1.458683169983210      2.980819067113760
C      -2.205232387328590     -0.060498671620740      3.105179311505170
C      -1.257694759891450      0.819740315312630      3.619304040312780
C      -0.663001252783260     -1.947355249368040      3.370540404894310
C       1.018552904062590      1.312964748853070      3.560218591131200
C       2.217454060406350      0.901055918235060      2.990860213860740
C       2.515339786114320     -0.499504026185300      2.863480263838080
C       1.609584823044990     -1.452661012434850      3.308818741306270
C       0.051111408420990      0.324014348494360      3.969382444639980
C       0.341212440814960     -1.028459177320680      3.847368071175320
H      -1.851618783500780      2.515451192765830     -4.611896295262920
H       0.403780159445410      2.973534587607750     -4.721866855974050
H       1.466683757725640      0.872909202722410     -5.234649886173300
H      -3.420831435648620     -0.463540274331230     -3.643661916724040
H      -1.899789916380990      0.214440550962820     -5.259722797627180
