76

C      -3.490700000000000     -1.274864000000000     -0.769904000000000
C      -3.615384000000000     -0.506269000000000      0.640364000000000
C      -3.239993000000000      1.031828000000000      0.253977000000000
C      -2.885067000000000     -0.240166000000000     -1.646798000000000
C      -2.899288000000000      1.009072000000000     -1.190568000000000
C      -1.908533000000000     -0.779589000000000     -2.538154000000000
C      -2.487916000000000     -2.495187000000000     -0.954504000000000
C      -1.613553000000000     -2.054498000000000     -2.147025000000000
C      -1.559712000000000     -2.763552000000000      0.210061000000000
C      -2.504230000000000     -0.903238000000000      1.742536000000000
C      -1.576026000000000     -2.073375000000000      1.437403000000000
C      -1.917636000000000      1.292715000000000      0.925575000000000
C      -1.576389000000000      0.302079000000000      1.822205000000000
C      -0.957133000000000      2.195559000000000      0.453786000000000
C      -2.102994000000000      2.059543000000000     -1.867576000000000
C      -1.216902000000000      2.948516000000000     -0.857807000000000
C      -0.949630000000000      0.102099000000000     -3.143710000000000
C      -1.054886000000000      1.452755000000000     -2.791107000000000
C       0.320316000000000     -0.458667000000000     -3.561083000000000
C      -0.323111000000000     -2.613215000000000     -2.417692000000000
C       0.632708000000000     -1.847321000000000     -3.213115000000000
C      -0.444686000000000     -3.546259000000000     -0.128089000000000
C       0.144085000000000     -3.546006000000000     -1.481020000000000
C       0.603853000000000     -3.770982000000000      0.787527000000000
C      -0.461239000000000     -2.178751000000000      2.288611000000000
C       0.603169000000000     -3.044842000000000      1.984242000000000
C      -0.310744000000000      0.274938000000000      2.411857000000000
C       0.088501000000000     -1.006450000000000      3.121746000000000
C       0.302240000000000      2.234576000000000      1.086218000000000
C       0.616789000000000      1.287306000000000      2.093992000000000
C       1.377581000000000      3.198646000000000      0.559087000000000
C       0.091994000000000      3.080222000000000     -1.600619000000000
C       0.090154000000000      2.272702000000000     -2.784997000000000
C       1.270977000000000      3.296686000000000     -0.956013000000000
C       1.384674000000000      0.444895000000000     -3.783379000000000
C       1.279401000000000      1.806178000000000     -3.343074000000000
C       2.764423000000000      0.048561000000000     -3.621227000000000
C       1.996683000000000     -2.228305000000000     -3.146536000000000
C       3.065929000000000     -1.264411000000000     -3.320523000000000
C       1.535977000000000     -3.820734000000000     -1.345073000000000
C       1.843219000000000     -3.976536000000000      0.062145000000000
C       2.452804000000000     -3.200757000000000     -2.191590000000000
C       3.041150000000000     -3.505292000000000      0.569649000000000
C       1.855351000000000     -2.516894000000000      2.491427000000000
C       1.578809000000000     -1.234397000000000      3.045647000000000
C       3.051805000000000     -2.761614000000000      1.822410000000000
C       2.024626000000000      1.228405000000000      2.699976000000000
C       2.468633000000000     -0.213176000000000      2.899373000000000
C       2.769916000000000      2.624409000000000      0.737293000000000
C       3.070758000000000      1.738668000000000      1.726439000000000
C       2.511587000000000      2.897157000000000     -1.558804000000000
C       2.536449000000000      2.206294000000000     -2.772541000000000
C       3.480800000000000      1.131211000000000     -2.973283000000000
C       3.449371000000000      2.546118000000000     -0.522206000000000
C       4.435943000000000      0.840342000000000     -2.005029000000000
C       4.425876000000000      1.572936000000000     -0.750969000000000
C       4.126028000000000     -1.574843000000000     -2.384835000000000
C       3.742256000000000     -2.774110000000000     -1.678051000000000
C       4.020402000000000     -2.900525000000000     -0.315696000000000
C       4.777803000000000     -0.536860000000000     -1.712532000000000
C       4.017084000000000     -1.707522000000000      1.704289000000000
C       3.711919000000000     -0.448413000000000      2.232047000000000
C       4.086756000000000      0.748398000000000      1.519367000000000
C       4.764973000000000      0.658242000000000      0.302506000000000
C       4.643683000000000     -1.802120000000000      0.394902000000000
C       5.013898000000000     -0.647119000000000     -0.287050000000000
Cl     -5.099425000000000     -1.636361000000000     -1.538915000000000
Cl     -5.266294000000000     -0.649213000000000      1.288750000000000
Cl     -4.450461000000000      2.295164000000000      0.724616000000000
Cl     -1.916732000000000      4.577422000000000     -0.453892000000000
Cl      1.220078000000000      4.819726000000000      1.420258000000000
Cl      2.029404000000000      2.182224000000000      4.279248000000000
Cl     -0.355321000000000     -0.973947000000000      4.913585000000000
Cl     -3.258323000000000     -1.239317000000000      3.379615000000000
Cl     -3.311167000000000     -4.104948000000000     -1.317177000000000
Cl     -3.230205000000000      3.088945000000000     -2.907076000000000
