62

C       0.214740454557466     -0.071739716210318     -3.832407791278344
C       0.291963882939474      1.474444678638473     -3.530302657827664
C      -1.010195952447612      1.766081565888969     -2.835065587263267
C      -1.124256401868157     -0.475110207050783     -3.274831923819551
C      -1.886324021141366      0.647989802530147     -2.851315501927718
C      -1.381182157295251     -1.692382519150556     -2.698479369714699
C      -0.295622214780541     -2.582001186944652     -2.323177063919326
C       1.264162312997605     -0.879787544156078     -3.147953333461571
C       0.993943766809306     -2.169407398338562     -2.556661768772606
C       2.376268179077235     -0.355453071612399     -2.520533286473948
C       1.404201439692742      1.862507061075071     -2.618102861903210
C       2.447358157071700      1.035915046381443     -2.252290419861669
C       1.249012513381518      2.860194540350614     -1.586468964335097
C      -1.158948004906969      2.705208798514722     -1.847705120224712
C       0.001879380501811      3.282216334585080     -1.191996691361714
C      -2.172900338235637      2.570849674983360     -0.843191052911972
C      -2.879539049694388      0.512618396375997     -1.880847889965723
C      -3.039285033036657      1.495548961796614     -0.859972006637264
C      -2.395746816000755     -1.841052064795031     -1.696265974652784
C      -3.153320050812392     -0.758093053873891     -1.295556789037322
C      -0.650948499405401     -3.257594113798242     -1.115989813686426
C      -1.959749497864167     -2.805430311290176     -0.724330882589277
C       0.308196403653613     -3.508809247535579     -0.145397719193668
C       1.991536188217333     -2.421296281987465     -1.546539586063942
C       2.867243258755372     -1.290834032003187     -1.519761176579322
C       1.662793671046106     -3.078887249483484     -0.375123290991456
C       3.380521896432203     -0.847636578534677     -0.328731387874109
C       3.009034077239430      1.480932265182413     -0.986096715641594
C       2.248012242134890      2.620256743395361     -0.574935560358562
C       3.453075117987049      0.579114049128410     -0.054022590680818
C       1.962033421992470      2.823266855822907      0.762749791767772
C      -0.307992197562422      3.491888493275370      0.186590378507011
C      -1.662127543456557      3.057379243209415      0.408519269935930
C       0.652457323770371      3.267588396926846      1.162123909465043
C      -1.999559237534861      2.420520851918037      1.590056783809089
C      -3.403531818917524      0.838340962111610      0.368521374669476
C      -3.475439957989566     -0.571844862248735      0.095909135808023
C      -2.889002804006443      1.286569941652380      1.569547954492400
C      -2.256540164525718     -2.623837866467627      0.615058231141441
C      -3.030390177673043     -1.482418660496529      1.034258741611104
C      -0.000459020629568     -3.307692708992691      1.242220770669572
C      -1.261025894794860     -2.875185032788009      1.622193285678534
C       2.194505209105061     -2.617848354368446      0.876944102312536
C       3.037688634690488     -1.514968638882942      0.894624679334246
C       1.167511008553054     -2.753843929935357      1.877262915501251
C       3.153423380084540      0.773878015343374      1.335627901144050
C       2.422280820322129      1.880909347945553      1.744061268943177
C       2.893481604569204     -0.515605858289516      1.920415225552592
C       0.300131748272492      2.597191414136141      2.382260061697124
C      -1.003445590900856      2.180415846271395      2.599571703712833
C       1.395969524282531      1.735567899811975      2.743821372703783
C      -2.431055271069836      0.341030638745663      2.549352459247269
C      -2.500439603592401     -1.018573957103956      2.286381333625619
C      -1.405646976237208     -1.879050548835094      2.648426895546132
C      -1.264377981809547      0.893516671323459      3.184960418564639
C       1.027457458877257     -1.788997175674311      2.857491450161880
C       1.908927766510962     -0.651065478335862      2.880733606809907
C       1.143906857095902      0.494601481194905      3.298938805638460
C      -0.281609908626913     -1.344511395548038      3.256671989343225
C      -0.209734274999073      0.063870248007274      3.529468934237609
Cl      0.298034977316171     -0.445716295012560     -5.606557813370311
Cl      0.424069069387112      2.482507886031790     -5.034939538223293
