75

C      -3.591873000000000     -0.693961000000000      1.037147000000000
C      -3.292665000000000      0.839218000000000      1.379653000000000
C      -3.077072000000000      1.554108000000000     -0.021936000000000
C      -3.664361000000000     -0.834534000000000     -0.537701000000000
C      -3.042964000000000      0.436847000000000     -1.006287000000000
C      -2.774830000000000     -2.125169000000000     -0.903180000000000
C      -2.421079000000000     -1.555215000000000      1.386437000000000
C      -2.068316000000000     -2.414382000000000      0.380101000000000
C      -1.559639000000000     -1.329573000000000      2.503973000000000
C      -1.966312000000000      1.040864000000000      2.067723000000000
C      -1.288294000000000      0.060586000000000      2.847169000000000
C      -1.674724000000000      2.132154000000000      0.055072000000000
C      -1.146438000000000      1.962232000000000      1.339400000000000
C      -0.819034000000000      2.252005000000000     -1.032442000000000
C      -2.233305000000000      0.492059000000000     -2.057189000000000
C      -1.340286000000000      1.700211000000000     -2.360742000000000
C      -1.706813000000000     -1.923003000000000     -1.975362000000000
C      -1.650699000000000     -0.709362000000000     -2.641910000000000
C      -0.534857000000000     -2.780424000000000     -1.986972000000000
C      -0.904941000000000     -3.233514000000000      0.445479000000000
C      -0.153573000000000     -3.517671000000000     -0.769617000000000
C      -0.566843000000000     -2.288957000000000      2.706005000000000
C      -0.273993000000000     -3.284340000000000      1.698441000000000
C       0.670712000000000     -1.966339000000000      3.367068000000000
C      -0.013885000000000      0.382156000000000      3.324159000000000
C       0.945326000000000     -0.621555000000000      3.621989000000000
C       0.226528000000000      2.146148000000000      1.589467000000000
C       0.714167000000000      1.671691000000000      2.940236000000000
C       0.560551000000000      2.478360000000000     -0.809207000000000
C       1.074473000000000      2.467142000000000      0.518320000000000
C       1.505903000000000      2.512752000000000     -2.013611000000000
C      -0.226000000000000      1.073473000000000     -3.151013000000000
C      -0.504819000000000     -0.312072000000000     -3.390549000000000
C       1.063721000000000      1.495645000000000     -3.058359000000000
C       0.495415000000000     -2.479340000000000     -2.911924000000000
C       0.521982000000000     -1.217221000000000     -3.603107000000000
C       1.871320000000000     -2.860703000000000     -2.690402000000000
C       1.180905000000000     -3.943643000000000     -0.614486000000000
C       2.209227000000000     -3.595916000000000     -1.571258000000000
C       1.110905000000000     -3.647831000000000      1.822537000000000
C       1.711023000000000     -2.824082000000000      2.850686000000000
C       1.821690000000000     -3.989093000000000      0.686929000000000
C       3.007022000000000     -2.347488000000000      2.681915000000000
C       2.280536000000000     -0.104703000000000      3.402676000000000
C       2.156307000000000      1.223155000000000      2.881953000000000
C       3.299520000000000     -0.954161000000000      2.970404000000000
C       2.578320000000000      2.581496000000000      0.778627000000000
C       3.011319000000000      1.653839000000000      1.908239000000000
C       2.890156000000000      2.001649000000000     -1.658991000000000
C       3.385992000000000      2.048013000000000     -0.389680000000000
C       2.133669000000000      0.589746000000000     -3.352669000000000
C       1.879154000000000     -0.748014000000000     -3.670724000000000
C       2.733884000000000     -1.785269000000000     -3.142017000000000
C       3.270878000000000      0.929630000000000     -2.532778000000000
C       3.871810000000000     -1.458206000000000     -2.411465000000000
C       4.154128000000000     -0.065163000000000     -2.108533000000000
C       3.439311000000000     -3.317983000000000     -0.857622000000000
C       3.199351000000000     -3.562666000000000      0.543690000000000
C       3.771265000000000     -2.731450000000000      1.512708000000000
C       4.244085000000000     -2.246509000000000     -1.255945000000000
C       4.234302000000000     -0.483334000000000      1.987154000000000
C       4.072382000000000      0.801081000000000      1.462375000000000
C       4.305543000000000      1.045323000000000      0.058040000000000
C       4.698544000000000      0.001481000000000     -0.781603000000000
C       4.557377000000000     -1.586792000000000      1.096754000000000
C       4.786055000000000     -1.349727000000000     -0.254124000000000
Cl     -5.016020000000000     -1.399175000000000      1.903961000000000
Cl     -4.536921000000000      1.621047000000000      2.432792000000000
Cl     -4.297757000000000      2.825079000000000     -0.456481000000000
Cl     -2.204937000000000      2.975554000000000     -3.358569000000000
Cl      1.572107000000000      4.233206000000000     -2.684395000000000
Cl      2.978910000000000      4.346009000000000      1.142897000000000
Cl     -5.344547000000000     -0.858268000000000     -1.209017000000000
Cl     -3.786625000000000     -3.582214000000000     -1.389219000000000
Cl      0.466212000000000      3.009221000000000      4.207756000000000
