96

C      -0.144298000000000     -2.855986000000000      2.025575000000000
C      -1.248675000000000     -1.819974000000000      2.252222000000000
C      -0.770838000000000     -0.769973000000000      3.077399000000000
C       1.057013000000000     -1.929811000000000      2.233997000000000
C       0.695253000000000     -0.840589000000000      3.066455000000000
C       2.136854000000000     -1.789774000000000      1.394228000000000
C       2.453026000000000     -2.692296000000000      0.251293000000000
C      -0.178349000000000     -3.615392000000000      0.635882000000000
C       1.140390000000000     -3.357290000000000     -0.354869000000000
C      -1.460387000000000     -3.228213000000000     -0.333336000000000
C      -2.318397000000000     -1.578436000000000      1.424397000000000
C      -2.706753000000000     -2.448320000000000      0.279442000000000
C      -2.938842000000000     -0.325055000000000      1.424879000000000
C      -1.394205000000000      0.459321000000000      3.123863000000000
C      -2.495904000000000      0.675683000000000      2.273034000000000
C      -0.709799000000000      1.795201000000000      3.471784000000000
C       1.439237000000000      0.319643000000000      3.111235000000000
C       0.893016000000000      1.714682000000000      3.467439000000000
C       2.885862000000000     -0.609871000000000      1.401888000000000
C       2.552507000000000      0.428227000000000      2.255739000000000
C       3.415886000000000     -1.751719000000000     -0.730106000000000
C       3.832290000000000     -0.486033000000000      0.251083000000000
C       2.777988000000000     -1.350496000000000     -2.124134000000000
C       0.576470000000000     -2.545876000000000     -1.461537000000000
C      -0.837203000000000     -2.469127000000000     -1.448114000000000
C       1.317604000000000     -1.760884000000000     -2.294651000000000
C      -1.505704000000000     -1.614794000000000     -2.277044000000000
C      -3.572645000000000     -1.406969000000000     -0.704492000000000
C      -3.877988000000000     -0.114451000000000      0.274124000000000
C      -2.918717000000000     -1.064288000000000     -2.103163000000000
C      -3.765484000000000      1.380141000000000     -0.325281000000000
C      -2.473734000000000      2.071527000000000      1.817435000000000
C      -1.305289000000000      2.677381000000000      2.356471000000000
C      -2.944174000000000      2.368355000000000      0.552324000000000
C      -0.568184000000000      3.523142000000000      1.548629000000000
C       1.566657000000000      2.538051000000000      2.350423000000000
C       2.667568000000000      1.820904000000000      1.804126000000000
C       0.909237000000000      3.449054000000000      1.544387000000000
C       3.863652000000000      1.008213000000000     -0.347049000000000
C       3.156054000000000      2.071533000000000      0.535949000000000
C       2.616037000000000      0.163140000000000     -2.393592000000000
C       3.075875000000000      1.190415000000000     -1.629563000000000
C       0.641368000000000     -0.817219000000000     -3.111070000000000
C      -0.747256000000000     -0.748131000000000     -3.106272000000000
C       1.436586000000000      0.383132000000000     -3.180859000000000
C      -2.614059000000000      0.423572000000000     -2.381730000000000
C      -2.963866000000000      1.487958000000000     -1.610651000000000
C      -1.421495000000000      0.524818000000000     -3.174164000000000
C      -2.149319000000000      3.228348000000000     -0.257613000000000
C      -0.999621000000000      3.833585000000000      0.232502000000000
C      -2.165746000000000      2.693277000000000     -1.625960000000000
C       1.360700000000000      3.714643000000000      0.225082000000000
C       2.442854000000000      3.001705000000000     -0.271274000000000
C       2.399648000000000      2.468244000000000     -1.639021000000000
C       0.203630000000000      4.270755000000000     -0.628729000000000
C       0.794716000000000      1.621944000000000     -3.208219000000000
C      -0.661462000000000      1.694654000000000     -3.206285000000000
C      -1.058277000000000      2.820841000000000     -2.430445000000000
C       1.304707000000000      2.703345000000000     -2.435868000000000
C       0.171075000000000      3.706898000000000     -2.126456000000000
O      -5.180785000000000     -0.295040000000000      0.805753000000000
H      -5.678100000000000     -0.751129000000000      0.099620000000000
O      -5.112562000000000      1.825247000000000     -0.522903000000000
H      -5.058124000000000      2.679748000000000     -0.977901000000000
O       0.278493000000000      5.699180000000000     -0.729290000000000
H       0.337774000000000      6.038266000000000      0.177563000000000
O       0.226948000000000      4.834950000000000     -3.003135000000000
H       0.210239000000000      4.482413000000000     -3.906143000000000
O      -1.099428000000000      2.263010000000000      4.767610000000000
H      -2.066950000000000      2.331275000000000      4.755863000000000
O       1.334422000000000      2.130643000000000      4.763686000000000
H       2.302654000000000      2.076224000000000      4.754080000000000
O      -0.182823000000000     -3.862644000000000      3.051311000000000
H      -0.202445000000000     -3.395925000000000      3.900868000000000
O      -0.210193000000000     -4.986502000000000      0.919503000000000
H       0.218694000000000     -5.399916000000000      0.144000000000000
O       5.255113000000000      1.302645000000000     -0.538574000000000
H       5.331278000000000      2.071631000000000     -1.123710000000000
O       5.128405000000000     -0.776713000000000      0.777401000000000
H       5.763879000000000     -0.276386000000000      0.231189000000000
O       4.590069000000000     -2.456080000000000     -1.022956000000000
H       5.142461000000000     -2.350352000000000     -0.225423000000000
O       3.301586000000000     -3.761020000000000      0.703706000000000
H       2.958403000000000     -4.055927000000000      1.563492000000000
O       3.589045000000000     -1.948873000000000     -3.146031000000000
H       3.166201000000000     -1.751068000000000     -3.995713000000000
O       1.512146000000000     -4.624117000000000     -0.893855000000000
H       2.320591000000000     -4.875521000000000     -0.399310000000000
O      -3.787028000000000     -1.592265000000000     -3.117373000000000
H      -3.375338000000000     -1.392111000000000     -3.972407000000000
O      -1.955762000000000     -4.485539000000000     -0.830104000000000
H      -2.380779000000000     -4.305381000000000     -1.685407000000000
O      -3.626895000000000     -3.428501000000000      0.756162000000000
H      -3.383041000000000     -4.247819000000000      0.271499000000000
O      -4.805209000000000     -2.035674000000000     -0.963083000000000
H      -4.854278000000000     -2.747849000000000     -0.285222000000000
