108

C      -2.915419000000000      0.294385000000000     -1.942033000000000
C      -2.936389000000000      1.797603000000000     -1.690002000000000
C      -3.160678000000000      1.820321000000000     -0.168205000000000
C      -3.371366000000000     -0.404790000000000     -0.900437000000000
C      -3.779843000000000      0.488213000000000      0.266639000000000
C      -3.243800000000000     -1.904205000000000     -0.777970000000000
C      -2.152678000000000     -2.416897000000000     -1.719768000000000
C      -2.240187000000000     -0.327535000000000     -3.141683000000000
C      -1.707468000000000     -1.721257000000000     -2.767042000000000
C      -0.927687000000000      0.416907000000000     -3.382253000000000
C      -1.586204000000000      2.371608000000000     -2.017891000000000
C      -0.770562000000000      1.910947000000000     -3.217903000000000
C      -0.883563000000000      3.144683000000000     -1.188856000000000
C      -2.454110000000000      2.592367000000000      0.662445000000000
C      -1.355216000000000      3.547320000000000      0.185200000000000
C      -2.198223000000000      2.232200000000000      2.136764000000000
C      -3.105040000000000     -0.012716000000000      1.514264000000000
C      -2.415634000000000      0.759433000000000      2.353123000000000
C      -2.615865000000000     -2.235903000000000      0.572645000000000
C      -2.967108000000000     -1.494314000000000      1.833700000000000
C      -1.292868000000000     -3.458658000000000     -0.982432000000000
C      -1.574207000000000     -3.061400000000000      0.463049000000000
C       0.168873000000000     -3.242912000000000     -1.282603000000000
C      -0.290672000000000     -1.892037000000000     -3.332843000000000
C       0.114968000000000     -0.429990000000000     -3.422004000000000
C       0.618906000000000     -2.560319000000000     -2.335888000000000
C       1.441521000000000      0.014845000000000     -3.071226000000000
C       0.637825000000000      2.287883000000000     -2.746720000000000
C       0.547032000000000      3.377737000000000     -1.670892000000000
C       1.659896000000000      1.417039000000000     -2.762763000000000
C       1.493922000000000      3.049774000000000     -0.542362000000000
C      -0.254519000000000      3.228478000000000      1.193189000000000
C      -0.705214000000000      2.527433000000000      2.234749000000000
C       1.207025000000000      3.453729000000000      0.900931000000000
C       0.187093000000000      1.869044000000000      3.253591000000000
C      -1.650554000000000     -0.049437000000000      3.393950000000000
C      -1.761612000000000     -1.453440000000000      2.788845000000000
C      -0.213799000000000      0.404533000000000      3.390275000000000
C      -0.626288000000000     -3.366656000000000      1.590314000000000
C      -0.719787000000000     -2.280700000000000      2.675463000000000
C       1.269416000000000     -3.538032000000000     -0.269365000000000
C       0.799017000000000     -3.141168000000000      1.105427000000000
C       2.117875000000000     -2.246387000000000     -2.228603000000000
C       2.341547000000000     -0.775594000000000     -2.444662000000000
C       2.354350000000000     -2.572638000000000     -0.754529000000000
C       2.943395000000000      1.545091000000000     -1.927357000000000
C       2.530276000000000      2.210256000000000     -0.638179000000000
C       3.448207000000000      0.011760000000000     -1.791329000000000
C       2.060106000000000      2.414627000000000      1.646671000000000
C       1.605540000000000      1.708730000000000      2.684116000000000
C       3.149301000000000      1.895782000000000      0.705617000000000
C       0.825907000000000     -0.424383000000000      3.286807000000000
C       0.693892000000000     -1.920628000000000      3.145689000000000
C       1.506649000000000     -2.376024000000000      1.936777000000000
C       2.131951000000000      0.311909000000000      3.039755000000000
C       3.063962000000000     -1.795161000000000      0.063852000000000
C       3.776395000000000     -0.486659000000000     -0.317813000000000
C       3.255973000000000      0.403749000000000      0.801175000000000
C       2.850145000000000     -1.796656000000000      1.588820000000000
C       2.810211000000000     -0.298718000000000      1.843328000000000
O      -3.912428000000000      2.475753000000000     -2.495523000000000
H      -4.763136000000000      2.033121000000000     -2.344186000000000
O      -1.791284000000000      4.913599000000000      0.244296000000000
H      -1.023307000000000      5.464468000000000      0.021042000000000
O      -2.978655000000000      2.946346000000000      3.102805000000000
H      -2.754792000000000      3.886148000000000      3.009265000000000
O       0.777605000000000      4.731660000000000     -2.078317000000000
H       0.130141000000000      4.926328000000000     -2.774732000000000
O       1.509877000000000      4.828824000000000      1.168909000000000
H       2.425056000000000      4.977414000000000      0.880884000000000
O       0.079095000000000      2.589673000000000      4.488423000000000
H       0.620194000000000      2.113123000000000      5.138409000000000
O      -2.244634000000000      0.007624000000000      4.699569000000000
H      -2.212217000000000      0.935982000000000      4.983243000000000
O      -5.204232000000000      0.592123000000000      0.426423000000000
H      -5.506937000000000     -0.235856000000000      0.833536000000000
O      -1.099829000000000      2.625829000000000     -4.424875000000000
H      -2.059320000000000      2.547967000000000     -4.551706000000000
O       4.401665000000000      2.562212000000000      0.928961000000000
H       5.017030000000000      2.249056000000000      0.245997000000000
O       2.935333000000000      0.238346000000000      4.227028000000000
H       3.787904000000000      0.654159000000000      4.021099000000000
O      -4.183236000000000     -2.051434000000000      2.356780000000000
H      -4.445097000000000     -1.505021000000000      3.116251000000000
O       3.958636000000000      2.344844000000000     -2.515992000000000
H       4.524251000000000      1.716276000000000     -3.004541000000000
O       1.035657000000000     -2.623577000000000      4.349811000000000
H       1.967771000000000     -2.425245000000000      4.536937000000000
O       4.661018000000000     -0.110117000000000     -2.560078000000000
H       4.521813000000000     -0.771485000000000     -3.255889000000000
O       5.191988000000000     -0.567839000000000     -0.140509000000000
H       5.556475000000000     -0.694881000000000     -1.037287000000000
O       3.852120000000000     -2.477907000000000      2.354567000000000
H       4.698681000000000     -2.046154000000000      2.156506000000000
O      -0.858173000000000     -4.712656000000000      2.025864000000000
H      -0.196084000000000     -4.904746000000000      2.709156000000000
O      -4.484438000000000     -2.590260000000000     -1.007924000000000
H      -5.098267000000000     -2.327400000000000     -0.302857000000000
O       2.940137000000000     -2.970560000000000     -3.152743000000000
H       2.850352000000000     -3.912669000000000     -2.935831000000000
O       1.732777000000000     -4.897022000000000     -0.323023000000000
H       0.970993000000000     -5.462649000000000     -0.115716000000000
O      -1.606730000000000     -4.831164000000000     -1.252583000000000
H      -2.523119000000000     -4.973396000000000     -0.964939000000000
O      -3.098305000000000     -0.393260000000000     -4.289918000000000
H      -3.411004000000000      0.509102000000000     -4.464111000000000
O      -0.203998000000000     -2.580600000000000     -4.584285000000000
H      -0.764771000000000     -2.096161000000000     -5.211215000000000
