112

C      -0.567211000000000      1.577492000000000      3.033023000000000
C      -1.139428000000000      2.775840000000000      2.287925000000000
C       0.100961000000000      3.258358000000000      1.532527000000000
C       0.767927000000000      1.576460000000000      3.022680000000000
C       1.349794000000000      2.764983000000000      2.264967000000000
C       1.608137000000000      0.405755000000000      3.456448000000000
C       0.764991000000000     -0.874791000000000      3.411458000000000
C      -1.398163000000000      0.408038000000000      3.519428000000000
C      -0.568981000000000     -0.867687000000000      3.386536000000000
C      -2.675665000000000      0.138172000000000      2.584690000000000
C      -2.128567000000000      2.252500000000000      1.297798000000000
C      -2.774699000000000      1.090938000000000      1.432669000000000
C      -2.391449000000000      2.888471000000000     -0.058697000000000
C       0.092723000000000      3.588870000000000      0.239330000000000
C      -1.137765000000000      3.605292000000000     -0.680475000000000
C       1.350628000000000      3.505278000000000     -0.643536000000000
C       2.369772000000000      2.267080000000000      1.274712000000000
C       2.376022000000000      2.603081000000000     -0.015678000000000
C       2.633270000000000      0.082208000000000      2.373457000000000
C       3.351734000000000      1.146777000000000      1.590196000000000
C       1.597171000000000     -2.010591000000000      2.821105000000000
C       2.630540000000000     -1.209883000000000      2.035664000000000
C       0.762550000000000     -2.815775000000000      1.863756000000000
C      -1.400622000000000     -2.014473000000000      2.818473000000000
C      -2.429996000000000     -1.252771000000000      2.016976000000000
C      -0.570906000000000     -2.835695000000000      1.869131000000000
C      -2.854346000000000     -1.644804000000000      0.818473000000000
C      -3.587042000000000      0.763802000000000      0.180893000000000
C      -2.853837000000000      1.645466000000000     -0.818765000000000
C      -3.587196000000000     -0.762959000000000     -0.181295000000000
C      -2.429455000000000      1.253347000000000     -2.017228000000000
C      -0.570013000000000      2.835842000000000     -1.869179000000000
C       0.763437000000000      2.815597000000000     -1.863664000000000
C      -1.399818000000000      2.014810000000000     -2.818612000000000
C       1.597977000000000      2.010215000000000     -2.820918000000000
C       3.354112000000000      1.765033000000000     -0.832095000000000
C       3.655198000000000      0.645265000000000      0.167802000000000
C       2.631057000000000      1.209252000000000     -2.035363000000000
C       3.353597000000000     -1.765832000000000      0.832472000000000
C       3.655056000000000     -0.646134000000000     -0.167391000000000
C       1.349707000000000     -3.505600000000000      0.643684000000000
C       2.375388000000000     -2.603644000000000      0.015945000000000
C      -1.138707000000000     -3.604964000000000      0.680341000000000
C      -2.392107000000000     -2.887890000000000      0.058446000000000
C       0.091882000000000     -3.588897000000000     -0.239337000000000
C      -2.774778000000000     -1.090278000000000     -1.432976000000000
C      -2.675396000000000     -0.137536000000000     -2.584984000000000
C      -2.128953000000000     -2.252003000000000     -1.298047000000000
C      -0.568382000000000      0.867829000000000     -3.386583000000000
C       0.765593000000000      0.874614000000000     -3.411369000000000
C      -1.397854000000000     -0.407696000000000     -3.519580000000000
C       2.633527000000000     -0.082836000000000     -2.373169000000000
C       3.351637000000000     -1.147576000000000     -1.589818000000000
C       2.369362000000000     -2.267637000000000     -1.274445000000000
C       1.608436000000000     -0.406136000000000     -3.456274000000000
C       0.100353000000000     -3.258391000000000     -1.532535000000000
C      -1.139834000000000     -2.775576000000000     -2.288073000000000
C      -0.567241000000000     -1.577355000000000     -3.033092000000000
C       1.349386000000000     -2.765299000000000     -2.264821000000000
C       0.767895000000000     -1.576643000000000     -3.022607000000000
O      -3.428081000000000      3.874658000000000      0.043473000000000
H      -4.258856000000000      3.407580000000000      0.237737000000000
O      -1.453399000000000      4.934854000000000     -1.096027000000000
H      -2.376844000000000      5.091406000000000     -0.826881000000000
O       1.985385000000000      4.753778000000000     -0.962922000000000
H       1.324790000000000      5.295886000000000     -1.424099000000000
O      -1.773141000000000      3.742067000000000      3.133676000000000
H      -1.092318000000000      4.071277000000000      3.742432000000000
O      -3.896738000000000      0.233381000000000      3.316929000000000
H      -3.853063000000000     -0.417724000000000      4.036912000000000
O      -2.079988000000000      2.788915000000000     -3.819234000000000
H      -1.396861000000000      3.163541000000000     -4.398100000000000
O       2.177108000000000      2.817362000000000     -3.859372000000000
H       2.668690000000000      3.531075000000000     -3.422369000000000
O       1.877913000000000      3.784169000000000      3.129400000000000
H       2.609391000000000      3.379269000000000      3.623083000000000
O      -1.798512000000000      0.568902000000000      4.879710000000000
H      -2.410224000000000      1.323173000000000      4.905276000000000
O       4.551889000000000      2.477053000000000     -1.183319000000000
H       4.282347000000000      3.279645000000000     -1.658941000000000
O      -2.081076000000000     -2.788427000000000      3.819019000000000
H      -1.398095000000000     -3.163235000000000      4.397941000000000
O      -3.428782000000000     -3.874018000000000     -0.043713000000000
H      -4.259482000000000     -3.406902000000000     -0.238203000000000
O      -1.454923000000000     -4.934403000000000      1.095856000000000
H      -2.378118000000000     -5.090936000000000      0.825859000000000
O       1.984161000000000     -4.754240000000000      0.963123000000000
H       1.323434000000000     -5.296211000000000      1.424266000000000
O       2.175968000000000     -2.817860000000000      3.859645000000000
H       2.667557000000000     -3.531600000000000      3.422700000000000
O      -4.923440000000000     -1.273033000000000     -0.285216000000000
H      -5.353168000000000     -0.813116000000000     -1.024543000000000
O      -1.773687000000000     -3.741642000000000     -3.133899000000000
H      -1.092885000000000     -4.070983000000000     -3.742606000000000
O       1.877372000000000     -3.784611000000000     -3.129186000000000
H       2.609012000000000     -3.379874000000000     -3.622761000000000
O       4.551185000000000     -2.478116000000000      1.183814000000000
H       4.281456000000000     -3.280641000000000      1.659442000000000
O       2.202182000000000      0.724771000000000      4.721445000000000
H       2.802085000000000     -0.004502000000000      4.945652000000000
O       4.478300000000000     -1.600835000000000     -2.352204000000000
H       4.880674000000000     -2.327449000000000     -1.849698000000000
O      -4.923176000000000      1.274210000000000      0.284601000000000
H      -5.353149000000000      0.814387000000000      1.023845000000000
O      -3.896410000000000     -0.232467000000000     -3.317356000000000
H      -3.852474000000000      0.418590000000000     -4.037365000000000
O      -1.798068000000000     -0.568445000000000     -4.879916000000000
H      -2.409984000000000     -1.322546000000000     -4.905570000000000
O       2.202537000000000     -0.725285000000000     -4.721213000000000
H       2.802629000000000      0.003853000000000     -4.945356000000000
O       4.478419000000000      1.599747000000000      2.352723000000000
H       4.881038000000000      2.326270000000000      1.850282000000000
