92

C       0.857842000000000      3.914236000000000     -0.702948000000000
C       4.184588000000000      0.921821000000000      1.059481000000000
C      -2.132088000000000     -3.505660000000000     -1.728049000000000
C       2.001821000000000     -3.993027000000000      0.097155000000000
C       0.196348000000000      3.386582000000000      0.572203000000000
C       3.824046000000000      1.588694000000000     -0.267987000000000
C      -2.521354000000000     -3.624080000000000     -0.348761000000000
C       1.508199000000000     -4.003549000000000     -1.225790000000000
C       1.007569000000000      2.788628000000000      1.605017000000000
C       3.863746000000000      0.996728000000000     -1.511908000000000
C       2.079011000000000     -3.203088000000000     -2.260518000000000
C      -1.580517000000000     -3.964802000000000      0.659090000000000
C       2.370562000000000      2.481787000000000      1.328318000000000
C      -0.303071000000000     -4.368166000000000      0.194849000000000
C       2.923426000000000      2.663388000000000      0.005234000000000
C       0.080729000000000     -4.251846000000000     -1.173246000000000
C       2.176416000000000      3.233911000000000     -0.989397000000000
C      -0.787341000000000     -3.731229000000000     -2.153986000000000
C       2.190775000000000      2.645194000000000     -2.275720000000000
C      -0.233812000000000     -2.943584000000000     -3.253402000000000
C       0.882880000000000      2.817458000000000     -2.861060000000000
C      -1.106838000000000     -2.020270000000000     -3.866214000000000
C       0.060758000000000      3.535700000000000     -1.939431000000000
C      -2.431550000000000     -1.759859000000000     -3.350594000000000
C      -1.278057000000000      3.288465000000000     -1.890781000000000
C      -2.942920000000000     -2.511220000000000     -2.332388000000000
C      -2.078854000000000      3.418836000000000     -0.615229000000000
C      -3.972023000000000     -1.969549000000000     -1.353694000000000
C      -1.198211000000000      3.259745000000000      0.612469000000000
C      -3.592631000000000     -2.717242000000000     -0.096004000000000
C      -1.797038000000000      2.659547000000000      1.728876000000000
C      -3.738856000000000     -2.175570000000000      1.138352000000000
C      -1.026532000000000      2.131068000000000      2.765933000000000
C      -2.832573000000000     -2.534431000000000      2.190720000000000
C       0.394474000000000      2.082443000000000      2.697389000000000
C      -1.707537000000000     -3.378311000000000      1.978032000000000
C       1.094748000000000      1.005408000000000      3.376964000000000
C      -0.506309000000000     -3.165944000000000      2.791547000000000
C       2.399888000000000      0.642637000000000      2.929892000000000
C       3.650306000000000     -1.336372000000000      1.992478000000000
C       3.094557000000000     -2.598373000000000      1.753973000000000
C       0.799451000000000     -3.554223000000000      2.251676000000000
C       3.023830000000000      1.404581000000000      1.948660000000000
C       4.210085000000000     -0.579699000000000      0.951175000000000
C       3.100985000000000     -3.170134000000000      0.460886000000000
C       0.870866000000000     -4.174410000000000      0.998644000000000
C       4.319410000000000     -1.169191000000000     -0.308890000000000
C       3.749028000000000     -2.441478000000000     -0.563542000000000
C       4.441897000000000     -0.401712000000000     -1.620243000000000
C       3.269259000000000     -2.496529000000000     -1.925969000000000
C       3.011959000000000      1.521962000000000     -2.566643000000000
C       1.211682000000000     -2.674116000000000     -3.302032000000000
C       2.534529000000000      0.658811000000000     -3.596371000000000
C       1.650701000000000     -1.499950000000000     -3.962037000000000
C       2.822945000000000     -0.771511000000000     -3.535850000000000
C       3.630310000000000     -1.280730000000000     -2.558581000000000
C       0.348554000000000      1.855437000000000     -3.752290000000000
C      -0.628395000000000     -0.769635000000000     -4.393257000000000
C      -1.078351000000000      1.582401000000000     -3.686686000000000
C      -1.566175000000000      0.280322000000000     -4.034067000000000
C      -1.842851000000000      2.289501000000000     -2.735122000000000
C      -2.660738000000000     -0.325253000000000     -3.378238000000000
C      -2.909512000000000      1.643306000000000     -2.010864000000000
C      -3.294997000000000      0.307559000000000     -2.256874000000000
C      -3.018556000000000      2.211611000000000     -0.725281000000000
C      -3.819563000000000     -0.456517000000000     -1.159307000000000
C      -3.490834000000000      1.468948000000000      0.340445000000000
C      -3.919194000000000      0.116074000000000      0.118210000000000
C      -3.196729000000000      2.022528000000000      1.723644000000000
C      -4.269941000000000     -0.764614000000000      1.330091000000000
C      -3.030143000000000      0.929651000000000      2.751011000000000
C      -3.514206000000000     -0.334243000000000      2.572867000000000
C      -1.797131000000000      1.117457000000000      3.453978000000000
C      -2.783736000000000     -1.448891000000000      3.119821000000000
C      -1.139953000000000      0.074955000000000      4.073055000000000
C      -1.650911000000000     -1.259491000000000      3.899374000000000
C       0.302651000000000      0.020432000000000      4.083765000000000
C      -0.522948000000000     -2.139381000000000      3.762963000000000
C       2.986643000000000     -0.729110000000000      3.230415000000000
C       1.973038000000000     -2.819868000000000      2.667738000000000
C       0.666388000000000     -1.349739000000000      4.045142000000000
C       1.898441000000000     -1.739405000000000      3.527057000000000
C       1.242333000000000      0.811676000000000     -4.150576000000000
C       0.720267000000000     -0.517872000000000     -4.440151000000000
Cl     -5.691433000000000     -2.357440000000000     -1.917150000000000
Cl     -6.097963000000000     -0.711020000000000      1.604364000000000
Cl     -4.505941000000000      3.217726000000000      2.245029000000000
Cl     -2.993283000000000      5.017787000000000     -0.564704000000000
Cl      6.214343000000000     -0.310707000000000     -2.176075000000000
Cl      5.797975000000000      1.576648000000000      1.689309000000000
Cl      1.068429000000000      5.752185000000000     -0.548855000000000
Cl      4.187298000000000     -0.593043000000000      4.634456000000000
