62

C       0.210322554254980     -0.073792232556599     -3.772631429542015
C       0.276139201898759      1.345241032008626     -3.264492596232135
C      -1.016659265160201      1.776748133357096     -2.844897106919896
C      -1.159985416791016     -0.492170135533861     -3.297389257384253
C      -1.901768212765693      0.634226096849346     -2.872077161119372
C      -1.402039455541558     -1.722592594313847     -2.724381051071904
C      -0.309188434648660     -2.593025540128891     -2.345807112899386
C       1.272795408370300     -0.914232634884313     -3.149895986622409
C       1.002051196402557     -2.168952048814836     -2.567448370829836
C       2.414330225455589     -0.355618728367222     -2.520088006195038
C       1.387825435183987      1.863692605411851     -2.645811528314068
C       2.503618845143749      1.004928662020644     -2.257615836005737
C       1.248529916367142      2.851847224140007     -1.609981839214508
C      -1.156554603077985      2.734668314795652     -1.852790918101048
C      -0.006596388165958      3.286508708657820     -1.224843109938383
C      -2.184472833779690      2.604910609169377     -0.833034191303014
C      -2.890344439068049      0.523256909565574     -1.885735898803072
C      -3.038650461146334      1.504596681843005     -0.878833798978181
C      -2.410411495212538     -1.850853222721956     -1.706909280019922
C      -3.157323513746894     -0.763213141267156     -1.295767573374803
C      -0.644961171450666     -3.259886712453708     -1.131149886421233
C      -1.957660323196529     -2.812446348672593     -0.735174638262341
C       0.318400333920905     -3.511571310290047     -0.159585925855964
C       2.013106128418931     -2.429658532427560     -1.552549803644549
C       2.893072199976332     -1.305222646247159     -1.525231614543528
C       1.678247397681304     -3.083609474277428     -0.383839410700439
C       3.406865778447869     -0.852468320811511     -0.325420564332417
C       3.027379493739231      1.463486121303292     -1.012310376809852
C       2.256530278554829      2.614893029298965     -0.612603485259961
C       3.478632135533978      0.560754822257568     -0.054947075607235
C       1.948900370399541      2.805240610348516      0.728292018806398
C      -0.329334595030876      3.486557213164570      0.177842477033650
C      -1.670633181960448      3.081735538441033      0.389984450754947
C       0.657207255227173      3.255100030969579      1.130123558770155
C      -2.159585554929194      2.598202798455105      1.714392590459845
C      -3.392666151398066      0.846444731038879      0.377188873173633
C      -3.453122938685248     -0.561783826040717      0.093269031038738
C      -2.899691328370743      1.292553431337623      1.573313956139593
C      -2.244387199199541     -2.628739463836431      0.605141797182832
C      -3.013962110835834     -1.487185873757018      1.024233892220019
C       0.012622391060973     -3.313336883118947      1.225812795134805
C      -1.246225567485983     -2.886337001842085      1.609973311718234
C       2.213545435533078     -2.624335648922177      0.871564962127396
C       3.063940417060565     -1.525402876771723      0.900842726993690
C       1.185142754543523     -2.763506498478431      1.868101546439574
C       3.153304438753040      0.765660021959895      1.327168752908405
C       2.411678715899757      1.864524512738577      1.724334681294750
C       2.911000630696204     -0.527132414620977      1.924129124132947
C       0.286029880831139      2.582388054063020      2.365951294823875
C      -1.008861921039361      2.185592292760217      2.597074362986848
C       1.382331836292936      1.720308501736124      2.713641436677351
C      -2.419965842401324      0.344466531149515      2.525758668717718
C      -2.481142846115560     -1.020261402375916      2.266243108815076
C      -1.390382720914854     -1.879046659088224      2.627937249448197
C      -1.250637168284698      0.898785480284117      3.159508917063146
C       1.044759069514839     -1.806831855989876      2.852650302506438
C       1.922295113140360     -0.665214728879986      2.880197607164164
C       1.153155880312683      0.480121472861504      3.287663336010663
C      -0.267189298654796     -1.347709804312195      3.240893331580615
C      -0.195477089545628      0.058626110772768      3.504445624660639
Cl      0.367926964137597     -0.163974577338972     -5.592182367782940
Cl     -3.192341129672295      3.906847690635893      2.467074422136798
