62

C       0.209397816233160     -0.068276478104379     -3.771525224730331
C       0.268201009352511      1.347044403831355     -3.257688281756479
C      -1.027812973205554      1.779714075901480     -2.840525667488867
C      -1.158937158399387     -0.490977573047858     -3.302155852601619
C      -1.909618047699883      0.639769178866564     -2.870181102578599
C      -1.405811093360756     -1.716448177056769     -2.734709800931389
C      -0.310183473440970     -2.599930793678319     -2.355745605518202
C       1.272965760186306     -0.908897165984829     -3.148961694877247
C       0.997483713105618     -2.175708478776529     -2.570340448203662
C       2.404167859419177     -0.357758654827200     -2.522075884095434
C       1.375103122810352      1.870110980668470     -2.644973537221654
C       2.493484508261260      1.010708543589435     -2.254246786813055
C       1.234830242479265      2.862578118808946     -1.614346615911102
C      -1.178189937381009      2.741707254505902     -1.851458406460292
C      -0.022110085635758      3.306005961820183     -1.223632518722839
C      -2.201126780375300      2.604248880677954     -0.848263567617436
C      -2.899001146374312      0.515136555078603     -1.899507706064822
C      -3.047088306293566      1.507154998164712     -0.877877282949045
C      -2.422363640530026     -1.856921651904828     -1.727709061580696
C      -3.169520838239895     -0.763910217555373     -1.316916262609412
C      -0.655512387920780     -3.265829670507746     -1.145671710251887
C      -1.973687122552441     -2.811985884749904     -0.752829776586007
C       0.302140658960360     -3.517490786232266     -0.172711540291761
C       2.004022546445253     -2.436518809832900     -1.556920419493185
C       2.875892481638305     -1.301468069716275     -1.515641498712453
C       1.661994766591472     -3.089832170297469     -0.389402855141765
C       3.388084683979944     -0.854645303216611     -0.317285152940120
C       3.015153846117164      1.468209302130373     -1.026920198219347
C       2.241663664168917      2.625603143998210     -0.616320434691662
C       3.461063239506510      0.569441481508117     -0.046961358172914
C       1.946801094770364      2.817717391680446      0.715952382324921
C      -0.324638226701572      3.510083510060449      0.167867322099573
C      -1.681417220012705      3.083100409674076      0.402417537182764
C       0.648723634169574      3.270012259432884      1.117488660524225
C      -1.997197262885887      2.430965958226258      1.586634652824226
C      -3.395515519923254      0.844230822381118      0.356201723938879
C      -3.476947908516924     -0.565452819845512      0.072196413718774
C      -2.881292687988432      1.284606397619722      1.559548591519605
C      -2.264984865694418     -2.624598404878615      0.583616610052495
C      -3.033022344744798     -1.482540679737365      1.008600842993033
C      -0.001609297836107     -3.296973170993181      1.213783756419556
C      -1.261658994914995     -2.862778116389017      1.593273801813483
C       2.191223281689827     -2.624393602413099      0.864570249501672
C       3.032353007148874     -1.520137051192906      0.906640381457316
C       1.163425985509995     -2.746093228713310      1.853625040473673
C       3.160108114046863      0.768266598783828      1.316095046122459
C       2.403747845693078      1.869965222453450      1.724811780900179
C       2.887988330689676     -0.528451265568531      1.937463653002474
C       0.312662061379708      2.586408835779296      2.353349560570298
C      -1.001736172305462      2.186868590364669      2.574729788623562
C       1.404427151346047      1.750701926666768      2.706798021496493
C      -2.409027242514103      0.336647846459330      2.530258187367548
C      -2.498000270673645     -1.019673492050797      2.258341458802353
C      -1.402003197450296     -1.868538393976031      2.613545168545695
C      -1.246029645696293      0.881748649064351      3.176242347640050
C       1.032151079460087     -1.777756963270333      2.839119725644863
C       1.918691856658427     -0.658694897578529      2.895249768164214
C       1.232415834583988      0.521108757667703      3.533946349783753
C      -0.279405206334939     -1.328573701393148      3.233573326171220
C      -0.202985237137783      0.062621226974598      3.530164248626961
Cl      0.376817505549473     -0.160866234421022     -5.592182015744780
Cl      1.846264990496547      0.851742535494642      5.227407558786252
