62

C       0.201224435071113     -0.089856552945104     -3.774951721606667
C       0.258603958463867      1.325654723109694     -3.250497901576668
C      -1.024521611751283      1.753804039245301     -2.830258620133782
C      -1.167991819052692     -0.514399382695856     -3.309547486218087
C      -1.908497229851869      0.621358294411847     -2.867163247171321
C      -1.406473932844336     -1.736620647373878     -2.734689555780414
C      -0.308494995328292     -2.609789612168647     -2.349581076489022
C       1.269783958453491     -0.921665023480401     -3.149396759817595
C       1.000110984129740     -2.177543115463792     -2.567892720721132
C       2.404904890640964     -0.354591056582882     -2.515183223964650
C       1.357156940471692      1.849324950570410     -2.615659721291909
C       2.483235471622049      1.006298584537453     -2.250579719786899
C       1.212834398060286      2.844589643676681     -1.590289297522628
C      -1.164319400671977      2.722420607472766     -1.831554115448887
C      -0.026623058946584      3.300116617183094     -1.216793354581083
C      -2.192082327503914      2.593044159542622     -0.835539349315952
C      -2.895937415383201      0.501179272512079     -1.895539534181271
C      -3.038926103090840      1.491116044604092     -0.874937711002904
C      -2.421602491982312     -1.873129516425489     -1.721125950062970
C      -3.168329991344554     -0.783223025989911     -1.317382989146524
C      -0.648541001177733     -3.267174628957569     -1.132071707634358
C      -1.964443534263955     -2.817598333322280     -0.739124163201296
C       0.313077430076971     -3.507156760906874     -0.155329013585284
C       2.010684451358888     -2.433338524679795     -1.551117589562858
C       2.887751511585218     -1.307022853372873     -1.524592897427887
C       1.672306925529604     -3.081768763184691     -0.379711677751042
C       3.403483199484015     -0.851559272250447     -0.326269967953985
C       3.016146454402507      1.466790365638142     -1.003298530413203
C       2.250281121659137      2.608050925869708     -0.600433237806420
C       3.481317332781638      0.558988428709180     -0.054589642473994
C       1.945836628131228      2.806229156136160      0.740378596791483
C      -0.354988842585490      3.757120318729823      0.185382192705975
C      -1.688512829384297      3.090320303736699      0.403242374728325
C       0.664993772897844      3.255252604880172      1.151078773017700
C      -2.009226081231786      2.442054714594591      1.568391721000590
C      -3.402199433742574      0.833989608014975      0.347696309619701
C      -3.473050079584071     -0.574594442361085      0.072221328392170
C      -2.878777085245310      1.294192270813683      1.540812671522200
C      -2.255622864730470     -2.622384283480467      0.600700366492339
C      -3.028248870447197     -1.481940497482772      1.017533341112999
C       0.004224043677823     -3.301921322210903      1.228499692366984
C      -1.257211519421293     -2.868593076784043      1.609443638112704
C       2.205754620300081     -2.615917844951542      0.874349872895407
C       3.060657772515534     -1.524652303599850      0.902954324975483
C       1.172544172020647     -2.748358583864148      1.870721232896670
C       3.169778412955873      0.762447962466080      1.335580484804455
C       2.428956000882569      1.858366980482404      1.734715419136723
C       2.915938215413491     -0.526214205055859      1.931283387995209
C       0.310133698318594      2.594775918855210      2.345965291449007
C      -1.000783213647243      2.181223011356336      2.584425829120390
C       1.409911667119914      1.720419896254733      2.726014277354592
C      -2.422832326094567      0.351553498492686      2.525208039127147
C      -2.489663989458540     -1.006754370739317      2.265180170926817
C      -1.401064737334019     -1.874988954445497      2.633571663783539
C      -1.251933490477573      0.905054312130610      3.165984017653629
C       1.034376462737804     -1.792054839438784      2.856626560605106
C       1.923114859067946     -0.658133055119402      2.890847506650727
C       1.156085829097004      0.489975569224413      3.299873268022849
C      -0.279364712219942     -1.340528850577799      3.250405413051795
C      -0.202977093457219      0.063585338755309      3.523663057526278
Cl      0.373121509648650     -0.180296737184882     -5.594744980554000
Cl     -0.463682890795807      5.579084277340089      0.327988188011523
