62

C       0.205146397110857     -0.072573451804043     -3.765318114308899
C       0.267076541072803      1.342686319883362     -3.252330040526001
C      -1.024754575914504      1.785991096437385     -2.842343826139254
C      -1.162045732463133     -0.490293404912631     -3.287642638628107
C      -1.911308775401950      0.652368924397774     -2.866145775644089
C      -1.409058450768204     -1.704781802732883     -2.709858871618345
C      -0.310901905198766     -2.597557030884698     -2.327433196646723
C       1.264090813855333     -0.918392808029785     -3.141576239540653
C       1.007536877926995     -2.158367857824981     -2.570717835605623
C       2.425954368157672     -0.350899222530706     -2.517764174774231
C       1.376503173694870      1.861598166607452     -2.636042228367225
C       2.492319901803057      1.003369437658874     -2.253484317662942
C       1.237969769815032      2.848450347489945     -1.600726133675339
C      -1.169979624755295      2.749563683756386     -1.847857552879489
C      -0.012283593442296      3.301867454901957     -1.214138187403988
C      -2.195981955817686      2.623650799040572     -0.855391097490989
C      -2.900313990868887      0.536419796717939     -1.898289186503555
C      -3.047652418539438      1.535685523386637     -0.879748040354080
C      -2.413585917289923     -1.835367826958927     -1.693980617364144
C      -3.167759081801608     -0.738294829556515     -1.309481254558208
C      -0.649399951256088     -3.243723881714696     -1.141317523174127
C      -1.976834774923783     -2.790183614711109     -0.716612547568316
C       0.311940742902906     -3.485337284191401     -0.137255334575506
C       2.028117167710738     -2.423809410980763     -1.550424828154252
C       2.906402258731831     -1.293890592682867     -1.528118725486937
C       1.694166090556806     -3.060688513734281     -0.383370633881345
C       3.425240583807589     -0.841539834179508     -0.324624044396383
C       3.020481496802582      1.468208469932774     -1.009494388605881
C       2.247882855775892      2.618693116854700     -0.605894219215234
C       3.483778630949241      0.574395708629638     -0.055001052179607
C       1.958573235093330      2.815326938991541      0.733677986623984
C      -0.316959201213191      3.513645499925307      0.175494819943873
C      -1.673623224860776      3.098928755813406      0.406117743143828
C       0.653757821530878      3.275228787945919      1.135446725742641
C      -2.008693427217532      2.457749608703836      1.581084403260721
C      -3.399023907854875      0.865256278688410      0.349981585976233
C      -3.463645187346473     -0.540586505812804      0.075449564376828
C      -2.884455264336883      1.308629414179876      1.553945596607005
C      -2.273130802263037     -2.615405598000688      0.606782832980074
C      -3.016674282162329     -1.462954630989483      1.011743896276706
C       0.020278576686971     -3.292443435593176      1.207589552683460
C      -1.362193778693409     -3.065915632328020      1.719543894310012
C       2.221753350317030     -2.600932759659055      0.866018470562654
C       3.075816491406872     -1.509533725532239      0.899177303389752
C       1.174272895470121     -2.738605863049176      1.857395916374539
C       3.167443899754554      0.779600185604051      1.332585514924224
C       2.424638305276821      1.883164277512852      1.724159102557001
C       2.917671044802271     -0.506585599903712      1.924156369500521
C       0.304980394594089      2.608484877978655      2.357810010332575
C      -1.002454947890945      2.204231940512058      2.575952350941193
C       1.393187007241461      1.734596259697412      2.715063569157662
C      -2.419011573831089      0.363730082064265      2.525169958870559
C      -2.483150696451549     -1.002427665371477      2.266366081304377
C      -1.415041785146992     -1.871816963676746      2.636480856950173
C      -1.261745534914236      0.916102546978193      3.159986054874612
C       1.036660624350510     -1.777623202665308      2.840465964165255
C       1.912776009804837     -0.649385660138000      2.869780287762970
C       1.138504359148244      0.497489041292182      3.281758675600806
C      -0.299350754964538     -1.340363237654634      3.230264054774469
C      -0.216372198787554      0.070071706407697      3.491806842065121
Cl      0.368574811703189     -0.168424378092886     -5.582171075171737
Cl     -1.957289966619974     -4.593285395895767      2.526546948825897
