62

C       0.199580850773629     -0.079301017211286     -3.775714387226182
C       0.266828410501137      1.328838703697420     -3.247469596368848
C      -1.025859098011492      1.768614172613374     -2.825963949301244
C      -1.158577635574014     -0.510955827912833     -3.282738354591515
C      -1.897140043117438      0.629059278882178     -2.838474789827591
C      -1.405122999038825     -1.725820845669448     -2.724804996303600
C      -0.349933383978035     -2.785902540630001     -2.532451312667274
C       1.233091041293386     -0.919184345064367     -3.108170020707281
C       0.987383273056285     -2.130253604581245     -2.552545037315264
C       2.430355593424976     -0.345511408995095     -2.489835005360368
C       1.366840349578962      1.850622202311114     -2.629750730477217
C       2.494048422609389      0.992260079887946     -2.241745276528965
C       1.229220230142582      2.828923233409729     -1.593710650814461
C      -1.171570358491781      2.729112753692119     -1.833080859926310
C      -0.017267092898141      3.285604167664229     -1.203338859693289
C      -2.196603701283836      2.609557429670811     -0.835389085369071
C      -2.881198793557179      0.522223847925018     -1.873239361526097
C      -3.043604418089783      1.518683215597970     -0.853450973840785
C      -2.398099776267503     -1.841309596815338     -1.703525509772756
C      -3.138998106773124     -0.750648338933446     -1.288248938766740
C      -0.664519798032590     -3.260111866880223     -1.138900563108736
C      -1.951570388235503     -2.794672519321918     -0.729180366380656
C       0.285624165360043     -3.475470180877846     -0.182875456528326
C       2.011898653672008     -2.407245762704607     -1.543302617653806
C       2.887461621203220     -1.279227534150799     -1.510295408073993
C       1.674311726100506     -3.044218261398645     -0.387690826512894
C       3.420892802710552     -0.836433297820391     -0.309415930258815
C       3.025352690671213      1.468552057743011     -0.999892960576144
C       2.244520872144621      2.604560864434935     -0.598831532621617
C       3.482159126385489      0.570279329450855     -0.044319832691042
C       1.954269147844931      2.806531494866587      0.738219340159618
C      -0.320258342136202      3.496531271358427      0.184901235072675
C      -1.674579042487403      3.084069472174017      0.420441026357671
C       0.651578201351927      3.261422660639930      1.141182561986466
C      -2.009152467815651      2.442827784754836      1.599325330185313
C      -3.404888181556644      0.863138806827495      0.374608494466764
C      -3.461584135866100     -0.546112453132638      0.095028291239449
C      -2.896276373788641      1.311422085605413      1.578514533440897
C      -2.250616078194574     -2.593354597681043      0.612214479546640
C      -3.021352474816106     -1.458733335989875      1.033840668078072
C      -0.005698987169305     -3.256428986164951      1.201512514304030
C      -1.259969605892476     -2.839421472831017      1.610525941489863
C       2.201056538638414     -2.591210046063368      0.864655862329177
C       3.061605435491557     -1.502374208767377      0.907566221468582
C       1.163685266923927     -2.723154798401458      1.848414495768633
C       3.169509710882995      0.779153914317301      1.346212437102881
C       2.422257889606195      1.875502177683940      1.730651291451634
C       2.908465810125941     -0.507058467202339      1.937313142728006
C       0.304584287828133      2.599281505402598      2.366522970839979
C      -1.001071256216909      2.196937751913660      2.594447550680195
C       1.398333743781469      1.741877822384041      2.729820906384928
C      -2.432035387406398      0.363603471752747      2.555768765758601
C      -2.502163357376263     -0.992622148144087      2.294197361510312
C      -1.405661224042421     -1.851079782074309      2.642804893583175
C      -1.262000085866916      0.912337736813766      3.185796811352960
C       1.025939554951681     -1.770972022116855      2.842061766745999
C       1.912928346084802     -0.638573038938745      2.886403411744727
C       1.147595954204895      0.505542709821424      3.298887727335505
C      -0.278864973786082     -1.325546151353215      3.250458567407088
C      -0.206436040120623      0.081612565383458      3.525410238805646
Cl      0.367071280358525     -0.198590551256085     -5.577403971359680
Cl     -0.427647999581684     -4.093706438588963     -3.786514443245050
