62

C       0.214740516732485     -0.071739869203184     -3.832407752452899
C       0.291963767608487      1.474444631418257     -3.530302685149171
C      -1.010196008949131      1.766081508035756     -2.835065472127022
C      -1.124256464974789     -0.475110194076763     -3.274832023397174
C      -1.886323990389448      0.647989744250298     -2.851315515741217
C      -1.381182158316828     -1.692382585701210     -2.698479346206368
C      -0.295622147142828     -2.582001218072601     -2.323177042431434
C       1.264162265108962     -0.879787500356172     -3.147953484340150
C       0.993943750583592     -2.169407486674996     -2.556661648016406
C       2.376268283391198     -0.355453009584135     -2.520533277674106
C       1.404201486607444      1.862507084759720     -2.618102832475196
C       2.447358163092147      1.035915019815105     -2.252290510254412
C       1.249012494642905      2.860194486426402     -1.586469024638188
C      -1.158947968946519      2.705208811961171     -1.847705021776893
C       0.001879396544328      3.282216402853392     -1.191996588522440
C      -2.172900360107073      2.570849638291375     -0.843191086519030
C      -2.879538931954259      0.512618366198495     -1.880847888011797
C      -3.039285076852063      1.495548981789089     -0.859971998647291
C      -2.395746892141412     -1.841052091738273     -1.696265960227200
C      -3.153320027166849     -0.758093077822579     -1.295556816956018
C      -0.650948524103231     -3.257593915659235     -1.115989805983078
C      -1.959749469859883     -2.805430252789647     -0.724330791944568
C       0.308196386624406     -3.508809223240341     -0.145397751683355
C       1.991536169751662     -2.421296257699471     -1.546539554675823
C       2.867243116933433     -1.290834014571391     -1.519761186371570
C       1.662793710538323     -3.078887253410351     -0.375123285656236
C       3.380521867719284     -0.847636552553302     -0.328731369168879
C       3.009034084037268      1.480932279087633     -0.986096655665318
C       2.248012300689985      2.620256684629716     -0.574935616602289
C       3.453075120029179      0.579114041977589     -0.054022625536194
C       1.962033519609944      2.823266886136712      0.762749790574090
C      -0.307992226704102      3.491888519143436      0.186590374143773
C      -1.662127586170136      3.057379229505198      0.408519298179833
C       0.652457328470198      3.267588372551363      1.162123941308058
C      -1.999559262782147      2.420520818737645      1.590056772026380
C      -3.403531778281402      0.838341006024339      0.368521447736674
C      -3.475440156994975     -0.571844798396237      0.095909106348640
C      -2.889002905425477      1.286569913758306      1.569547894721642
C      -2.256540137794804     -2.623837833792617      0.615058275408155
C      -3.030390190515421     -1.482418722449322      1.034258842740791
C      -0.000458938265890     -3.307692691646122      1.242220723478702
C      -1.261025990702678     -2.875185043661027      1.622193345819358
C       2.194505323296941     -2.617848314874152      0.876944126358289
C       3.037688575502091     -1.514968694143480      0.894624680303784
C       1.167511041887200     -2.753843889670959      1.877262954549589
C       3.153423383967850      0.773877974661549      1.335627811711868
C       2.422280674644062      1.880909341524803      1.744061370672111
C       2.893481618181288     -0.515605897680099      1.920415212071412
C       0.300131637193895      2.597191429753541      2.382260090555858
C      -1.003445498896782      2.180415880249861      2.599571743342281
C       1.395969556406737      1.735567931056340      2.743821371195741
C      -2.431055124844316      0.341030645251511      2.549352394955918
C      -2.500439564129164     -1.018573868674599      2.286381331938765
C      -1.405647013562007     -1.879050546747792      2.648426869498225
C      -1.264377916635742      0.893516719736783      3.184960272203767
C       1.027457432225013     -1.788997225958420      2.857491356850119
C       1.908927709797964     -0.651065474059809      2.880733720880876
C       1.143906878152394      0.494601474556861      3.298938862554420
C      -0.281609913311590     -1.344511424710224      3.256671914511384
C      -0.209734189761711      0.063870167991653      3.529468792270836
Cl      0.298035025178658     -0.445716418782452     -5.606557748635921
Cl      0.424069060895381      2.482507872252751     -5.034939635279960
