72

C       3.487285000000000     -0.086756000000000     -1.850698000000000
C       3.704710000000000      0.746299000000000     -0.532524000000000
C       3.651643000000000     -0.325958000000000      0.666235000000000
C       3.119830000000000     -1.458484000000000     -1.362790000000000
C       3.234361000000000     -1.610229000000000      0.003663000000000
C       2.035067000000000     -1.973932000000000     -2.082379000000000
C       2.247566000000000      0.270676000000000     -2.648523000000000
C       1.539268000000000     -0.906815000000000     -2.952492000000000
C       1.555451000000000      1.493282000000000     -2.531776000000000
C       2.522881000000000      1.628943000000000     -0.253745000000000
C       1.697714000000000      2.238315000000000     -1.270861000000000
C       2.459012000000000      0.133627000000000      1.494645000000000
C       1.992862000000000      1.390638000000000      0.999170000000000
C       1.607729000000000     -0.688987000000000      2.177474000000000
C       2.368996000000000     -2.485089000000000      0.640625000000000
C       1.825390000000000     -2.205688000000000      2.045339000000000
C       1.137364000000000     -2.877968000000000     -1.485217000000000
C       1.411499000000000     -3.193127000000000     -0.108330000000000
C      -0.238589000000000     -2.955345000000000     -1.978939000000000
C       0.193080000000000     -0.898455000000000     -3.387981000000000
C      -0.704050000000000     -1.980507000000000     -2.976338000000000
C       0.312860000000000      1.562394000000000     -3.206258000000000
C      -0.336721000000000      0.377361000000000     -3.698466000000000
C      -0.714480000000000      2.484310000000000     -2.804940000000000
C       0.625370000000000      2.996183000000000     -0.824156000000000
C      -0.557631000000000      3.164857000000000     -1.597640000000000
C       0.745004000000000      1.936012000000000      1.432376000000000
C       0.276995000000000      3.151730000000000      0.659892000000000
C       0.340757000000000     -0.154300000000000      2.670905000000000
C      -0.036152000000000      1.218521000000000      2.303492000000000
C      -0.663253000000000     -1.035113000000000      3.079719000000000
C       0.501547000000000     -2.931135000000000      2.017325000000000
C       0.337617000000000     -3.593050000000000      0.769509000000000
C      -0.608687000000000     -2.435591000000000      2.658679000000000
C      -1.199575000000000     -3.570960000000000     -1.147460000000000
C      -0.917578000000000     -3.854192000000000      0.250518000000000
C      -2.596735000000000     -3.246431000000000     -1.232610000000000
C      -2.093147000000000     -1.745701000000000     -3.091423000000000
C      -3.040483000000000     -2.360130000000000     -2.199741000000000
C      -1.757271000000000      0.613565000000000     -3.702184000000000
C      -2.002218000000000      1.925656000000000     -3.144024000000000
C      -2.619228000000000     -0.432202000000000     -3.428711000000000
C      -3.105149000000000      2.130588000000000     -2.320002000000000
C      -1.691735000000000      3.349625000000000     -0.716857000000000
C      -1.230438000000000      3.240637000000000      0.634784000000000
C      -2.951405000000000      2.872887000000000     -1.082656000000000
C      -1.416877000000000      1.759243000000000      2.681099000000000
C      -2.004625000000000      2.620039000000000      1.571033000000000
C      -2.067740000000000     -0.638956000000000      3.048830000000000
C      -2.447019000000000      0.657325000000000      2.803940000000000
C      -1.928285000000000     -2.811718000000000      2.209620000000000
C      -2.086250000000000     -3.542823000000000      1.025861000000000
C      -3.151971000000000     -3.203632000000000      0.108837000000000
C      -2.839895000000000     -1.731131000000000      2.502631000000000
C      -4.082953000000000     -2.224275000000000      0.434674000000000
C      -3.929653000000000     -1.470685000000000      1.668710000000000
C      -4.082000000000000     -1.400625000000000     -1.888378000000000
C      -3.819435000000000     -0.204461000000000     -2.652230000000000
C      -4.043097000000000      1.053085000000000     -2.080982000000000
C      -4.570259000000000     -1.313802000000000     -0.584056000000000
C      -3.787358000000000      2.259652000000000     -0.087144000000000
C      -3.307034000000000      2.133196000000000      1.217099000000000
C      -3.574531000000000      0.930808000000000      1.976901000000000
C      -4.319070000000000     -0.111257000000000      1.410275000000000
C      -4.489413000000000      1.146336000000000     -0.705945000000000
C      -4.744701000000000     -0.010543000000000      0.026305000000000
Cl      4.924201000000000     -0.146664000000000     -2.976737000000000
Cl      5.159057000000000      1.815769000000000     -0.545438000000000
Cl      5.141574000000000     -0.476592000000000      1.674658000000000
Cl      2.900039000000000     -2.853714000000000      3.396753000000000
Cl     -1.235362000000000      2.696899000000000      4.272808000000000
Cl      1.048667000000000      4.676394000000000      1.387942000000000
