68

C       0.228069672412385     -0.036168126181674     -3.783782571373023
C       0.281009436623544      1.528132906654819     -3.564685427141418
C      -0.984952402134975      1.782077438036291     -2.786829688224706
C      -1.122731232613684     -0.472433900277015     -3.274684843744008
C      -1.844484182680426      0.654346976156124     -2.805021879432687
C      -1.358662467384033     -1.689488908305292     -2.714392684296000
C      -0.341687151542122     -2.799940083796041     -2.524590643865948
C       1.153427353984410     -0.852492861326340     -2.965374145065247
C       0.967746667997060     -2.124844923945144     -2.499236205689656
C       2.296931974069810     -0.298892462514103     -2.368424233795566
C       1.555093740869742      2.140486886557843     -2.866760204026826
C       2.675360847923133      1.119241880481909     -2.428591641718957
C       1.236009988411485      2.837679642117503     -1.573399478333303
C      -1.164424561620315      2.715199688876049     -1.811966465612554
C       0.016086142970839      3.273245269999317     -1.162767890126121
C      -2.180142617069507      2.593879314302110     -0.810169117391884
C      -2.845121468901284      0.533930486550451     -1.849447502042727
C      -3.033433109337810      1.512076122667527     -0.827506233201434
C      -2.362524353153767     -1.815003796827436     -1.696959308668500
C      -3.115745931373525     -0.735275369189488     -1.279226570397359
C      -0.650963888521040     -3.256579443706718     -1.120263315297193
C      -1.931905982789217     -2.762467891735182     -0.716149777383597
C       0.295645694255021     -3.477452062283542     -0.176369973716673
C       2.138602066816556     -2.580868443951619     -1.683586256545735
C       2.812371169510624     -1.245916216261969     -1.487247420359165
C       1.789100766259202     -3.355902412092735     -0.378433742647669
C       3.370176171728183     -0.843997980622424     -0.295559737372653
C       2.996924940574373      1.496090829673127     -1.000915925595633
C       2.223957026753246      2.587380790316522     -0.573489486798008
C       3.405247467431873      0.579741614941399     -0.058758781408136
C       1.923946319864022      2.791366305078295      0.774578872763338
C      -0.309136188611048      3.473954122760456      0.219073242463196
C      -1.666747849534753      3.070072433668352      0.443555639319995
C       0.641094379344052      3.248481946831830      1.191597248661147
C      -2.025063632692696      2.443141241160319      1.629067683532832
C      -3.413545312877678      0.862741388567611      0.396540354378109
C      -3.474186463998882     -0.543575741772063      0.108081157665580
C      -2.918743347884636      1.313119917084350      1.608843639242959
C      -2.255105341184628     -2.571184933636296      0.614778428631099
C      -3.037809084941419     -1.449362766649571      1.051701115604875
C      -0.014756534251741     -3.240105659416633      1.207943177621618
C      -1.264140879862773     -2.817792641851029      1.609803926860272
C       2.183790248991030     -2.617828147645549      0.879692006042107
C       3.026475226096472     -1.531275298382941      0.920804292565495
C       1.144946710611766     -2.711714480642718      1.851158026537463
C       3.099499195267026      0.761173506157800      1.331297263812726
C       2.376825922199690      1.859845775219886      1.750708221999151
C       2.848620030517665     -0.524829991754405      1.931956814315696
C       0.277507605231823      2.598882326459437      2.425041158862793
C      -1.029849994634132      2.199547741734179      2.645363162836202
C       1.369033922745131      1.737513669928940      2.781729627330724
C      -2.467299971997551      0.368293064310615      2.593134142424229
C      -2.530641256520163     -0.987051904983756      2.318174035596507
C      -1.427017575366183     -1.846375663849901      2.656285242237762
C      -1.296282965473666      0.914337952528073      3.232754835336910
C       0.996964807720072     -1.769402765183762      2.862913379704682
C       1.875985672724115     -0.642753313132961      2.902827817326626
C       1.113640623336144      0.501344744693958      3.339407574167494
C      -0.303205369954785     -1.326363701664908      3.273015844136815
C      -0.240558546347635      0.084205649472245      3.573592923403310
Cl      0.548206668797475     -0.508493886665353     -5.481922906164295
Cl     -0.419766774792163     -4.141029975493228     -3.730824073758659
Cl     -0.042044007171824      2.347472969226249     -5.137409708690115
Cl      2.293024294908282      3.442320468404625     -3.881211186337217
Cl      2.498180205966229     -5.011997043741221     -0.353767933831595
Cl      3.185393558659067     -3.586741206579253     -2.782417243434876
Cl      4.124709476641623      1.181287541859908     -3.511984158639379
Cl      2.074489346896453     -1.418985964275854     -4.416866607850888
