71

C       3.370999000000000     -1.482610000000000      0.640782000000000
C       3.437052000000000     -1.051697000000000     -0.895411000000000
C       3.409154000000000      0.537257000000000     -0.928721000000000
C       3.288974000000000     -0.143209000000000      1.483210000000000
C       3.107735000000000      0.931201000000000      0.472750000000000
C       2.035294000000000     -0.289345000000000      2.314272000000000
C       2.076399000000000     -2.170262000000000      0.988347000000000
C       1.466811000000000     -1.566954000000000      2.110325000000000
C       1.298033000000000     -2.919964000000000      0.084389000000000
C       2.186281000000000     -1.421319000000000     -1.648520000000000
C       1.359988000000000     -2.523573000000000     -1.335812000000000
C       2.198694000000000      0.878529000000000     -1.788084000000000
C       1.661178000000000     -0.327029000000000     -2.346211000000000
C       1.392071000000000      1.964407000000000     -1.586380000000000
C       2.303346000000000      1.968688000000000      0.732691000000000
C       1.715776000000000      2.846518000000000     -0.372165000000000
C       1.193888000000000      0.799183000000000      2.625730000000000
C       1.449797000000000      2.007565000000000      1.901645000000000
C      -0.163371000000000      0.543243000000000      3.107173000000000
C       0.131710000000000     -1.873895000000000      2.510287000000000
C      -0.683763000000000     -0.827563000000000      3.102565000000000
C       0.077865000000000     -3.420677000000000      0.579248000000000
C      -0.473489000000000     -2.949699000000000      1.830394000000000
C      -1.035657000000000     -3.737603000000000     -0.288590000000000
C       0.196696000000000     -2.668861000000000     -2.113416000000000
C      -0.978684000000000     -3.366993000000000     -1.626028000000000
C       0.374271000000000     -0.355084000000000     -2.947571000000000
C      -0.259597000000000     -1.615323000000000     -2.979971000000000
C       0.075690000000000      2.022047000000000     -2.216399000000000
C      -0.413499000000000      0.864505000000000     -2.965909000000000
C      -0.873277000000000      2.944489000000000     -1.725587000000000
C       0.472256000000000      3.378549000000000      0.291427000000000
C       0.408818000000000      2.940614000000000      1.659206000000000
C      -0.682139000000000      3.572474000000000     -0.405709000000000
C      -1.095043000000000      1.606844000000000      3.063087000000000
C      -0.821883000000000      2.804454000000000      2.300223000000000
C      -2.514238000000000      1.372885000000000      2.983868000000000
C      -2.085756000000000     -1.027097000000000      3.111790000000000
C      -3.003940000000000      0.080004000000000      3.021383000000000
C      -1.901516000000000     -3.076848000000000      1.769211000000000
C      -2.265630000000000     -3.563216000000000      0.451935000000000
C      -2.692083000000000     -2.142115000000000      2.414736000000000
C      -3.405704000000000     -3.068743000000000     -0.172975000000000
C      -2.147547000000000     -2.809686000000000     -2.266103000000000
C      -1.689517000000000     -1.721631000000000     -3.106839000000000
C      -3.348357000000000     -2.682747000000000     -1.570093000000000
C      -1.804625000000000      0.733523000000000     -3.197873000000000
C      -2.444202000000000     -0.572205000000000     -3.236944000000000
C      -2.274363000000000      2.726387000000000     -1.880296000000000
C      -2.741807000000000      1.649899000000000     -2.627864000000000
C      -1.958728000000000      3.570788000000000      0.276094000000000
C      -2.028736000000000      3.205773000000000      1.626242000000000
C      -3.098288000000000      2.347708000000000      2.077326000000000
C      -2.958309000000000      3.098102000000000     -0.646461000000000
C      -4.105604000000000      1.951933000000000      1.200643000000000
C      -4.035797000000000      2.340160000000000     -0.197293000000000
C      -4.119246000000000     -0.306376000000000      2.178746000000000
C      -3.927731000000000     -1.688670000000000      1.803002000000000
C      -4.259779000000000     -2.120109000000000      0.519654000000000
C      -4.638397000000000      0.606201000000000      1.261987000000000
C      -4.162252000000000     -1.495834000000000     -1.739307000000000
C      -3.732992000000000     -0.469343000000000     -2.582069000000000
C      -3.918102000000000      0.913195000000000     -2.201501000000000
C      -4.533295000000000      1.232964000000000     -0.994311000000000
C      -4.751777000000000     -1.163912000000000     -0.454318000000000
C      -4.932292000000000      0.169923000000000     -0.092046000000000
Cl      4.687359000000000     -2.608265000000000      1.160475000000000
Cl      4.809459000000000     -1.791218000000000     -1.812427000000000
Cl      4.913501000000000      1.342786000000000     -1.562303000000000
Cl      2.834620000000000      4.246297000000000     -0.825194000000000
Cl      4.733497000000000      0.225759000000000      2.560299000000000
