75

C       3.598274000000000      1.278857000000000     -0.126925000000000
C       3.749181000000000     -0.208038000000000      0.454685000000000
C       3.247181000000000     -1.147176000000000     -0.760954000000000
C       2.995946000000000      1.100417000000000     -1.484403000000000
C       2.866029000000000     -0.221212000000000     -1.875658000000000
C       2.053546000000000      2.076089000000000     -1.791164000000000
C       2.575629000000000      2.187639000000000      0.476159000000000
C       1.946925000000000      3.038179000000000     -0.640389000000000
C       1.893643000000000      1.924898000000000      1.663122000000000
C       2.730535000000000     -0.547345000000000      1.663036000000000
C       1.899481000000000      0.596513000000000      2.247875000000000
C       1.949311000000000     -1.749073000000000     -0.283347000000000
C       1.716248000000000     -1.502549000000000      1.050692000000000
C       0.914748000000000     -2.163226000000000     -1.135162000000000
C       1.841856000000000     -0.542271000000000     -2.738444000000000
C       1.070863000000000     -1.860064000000000     -2.635621000000000
C       0.994260000000000      1.797135000000000     -2.671021000000000
C       0.984375000000000      0.472798000000000     -3.216571000000000
C      -0.270152000000000      2.533302000000000     -2.567466000000000
C       0.538257000000000      3.474786000000000     -0.380883000000000
C      -0.477246000000000      3.411235000000000     -1.407301000000000
C       0.819287000000000      2.803425000000000      1.980740000000000
C       0.177866000000000      3.617878000000000      0.949462000000000
C      -0.179812000000000      2.446430000000000      2.919767000000000
C       0.825716000000000      0.212684000000000      3.029541000000000
C      -0.196658000000000      1.135347000000000      3.404485000000000
C       0.477294000000000     -1.798115000000000      1.627381000000000
C       0.205919000000000     -1.200997000000000      2.999805000000000
C      -0.322555000000000     -2.520110000000000     -0.571470000000000
C      -0.531393000000000     -2.367187000000000      0.827992000000000
C      -1.490056000000000     -2.881198000000000     -1.504915000000000
C      -0.271400000000000     -1.485306000000000     -3.214732000000000
C      -0.245021000000000     -0.126509000000000     -3.657221000000000
C      -1.439972000000000     -2.015837000000000     -2.758051000000000
C      -1.399864000000000      1.991850000000000     -3.203768000000000
C      -1.395156000000000      0.630812000000000     -3.721636000000000
C      -2.740625000000000      2.249301000000000     -2.735475000000000
C      -1.809123000000000      3.713106000000000     -1.021106000000000
C      -2.944642000000000      3.108852000000000     -1.672049000000000
C      -1.187634000000000      3.819204000000000      1.337729000000000
C      -1.428428000000000      3.097369000000000      2.564361000000000
C      -2.167839000000000      3.904173000000000      0.363688000000000
C      -2.644598000000000      2.460215000000000      2.760033000000000
C      -1.457962000000000      0.454602000000000      3.559883000000000
C      -1.262030000000000     -0.908483000000000      3.183759000000000
C      -2.663086000000000      1.103223000000000      3.279681000000000
C      -1.912696000000000     -2.620596000000000      1.440904000000000
C      -2.231972000000000     -1.586329000000000      2.510044000000000
C      -2.825444000000000     -2.477112000000000     -0.907571000000000
C      -3.023041000000000     -2.375429000000000      0.436056000000000
C      -2.658118000000000     -1.279509000000000     -2.897490000000000
C      -2.656430000000000      0.021017000000000     -3.419722000000000
C      -3.516551000000000      1.028874000000000     -2.842894000000000
C      -3.533574000000000     -1.603722000000000     -1.799127000000000
C      -4.422230000000000      0.695735000000000     -1.841561000000000
C      -4.436176000000000     -0.656201000000000     -1.310691000000000
C      -3.954122000000000      2.814619000000000     -0.674260000000000
C      -3.467990000000000      3.304892000000000      0.593676000000000
C      -3.692469000000000      2.571575000000000      1.762362000000000
C      -4.656149000000000      1.608696000000000     -0.740214000000000
C      -3.705555000000000      0.384698000000000      2.606627000000000
C      -3.476650000000000     -0.940702000000000      2.221535000000000
C      -3.964122000000000     -1.425212000000000      0.954753000000000
C      -4.671988000000000     -0.574810000000000      0.102915000000000
C      -4.369182000000000      1.293018000000000      1.684750000000000
C      -4.841914000000000      0.823189000000000      0.462687000000000
Cl      5.182706000000000      2.215860000000000     -0.232117000000000
Cl      5.441036000000000     -0.549707000000000      0.887356000000000
Cl      4.385900000000000     -2.461173000000000     -1.273952000000000
Cl      1.812721000000000     -3.258067000000000     -3.555821000000000
Cl     -1.428672000000000     -4.685455000000000     -1.872795000000000
Cl     -1.956263000000000     -4.342264000000000      2.105957000000000
Cl      0.707452000000000     -2.340347000000000      4.360715000000000
Cl      3.590179000000000     -1.352793000000000      3.066762000000000
Cl      2.901148000000000      4.631954000000000     -0.984077000000000
