75

C       3.867997000000000      0.052850000000000     -0.344942000000000
C       3.495108000000000     -1.072766000000000      0.702080000000000
C       2.853935000000000     -2.281725000000000     -0.166802000000000
C       3.084714000000000     -0.369228000000000     -1.535703000000000
C       2.634684000000000     -1.672587000000000     -1.514394000000000
C       2.382386000000000      0.657238000000000     -2.157061000000000
C       3.316934000000000      1.548165000000000     -0.091265000000000
C       2.428805000000000      1.822579000000000     -1.333517000000000
C       2.403672000000000      1.733112000000000      1.117417000000000
C       2.366705000000000     -0.687301000000000      1.590116000000000
C       2.041678000000000      0.639754000000000      1.979702000000000
C       1.453500000000000     -2.453171000000000      0.413704000000000
C       1.308379000000000     -1.647099000000000      1.549193000000000
C       0.318042000000000     -2.821409000000000     -0.308046000000000
C       1.538099000000000     -2.000500000000000     -2.286693000000000
C       0.485008000000000     -3.012713000000000     -1.826760000000000
C       1.281524000000000      0.364097000000000     -2.993338000000000
C       0.942890000000000     -1.022012000000000     -3.106210000000000
C       0.262945000000000      1.375422000000000     -3.166472000000000
C       1.421887000000000      2.746056000000000     -1.384391000000000
C       0.336119000000000      2.593264000000000     -2.356927000000000
C       1.602878000000000      2.861635000000000      1.103428000000000
C       1.274374000000000      3.660950000000000     -0.172833000000000
C       0.531629000000000      3.015316000000000      2.016662000000000
C       0.930351000000000      0.774163000000000      2.830434000000000
C       0.203761000000000      1.968890000000000      2.890632000000000
C       0.054740000000000     -1.441093000000000      2.146101000000000
C       0.021462000000000     -0.389013000000000      3.225331000000000
C      -0.963307000000000     -2.637420000000000      0.278976000000000
C      -1.083428000000000     -1.989396000000000      1.540464000000000
C      -2.216319000000000     -2.958400000000000     -0.544727000000000
C      -0.749559000000000     -2.519251000000000     -2.549700000000000
C      -0.409067000000000     -1.414161000000000     -3.394844000000000
C      -1.995690000000000     -2.567401000000000     -2.000607000000000
C      -0.992744000000000      0.958214000000000     -3.677093000000000
C      -1.336990000000000     -0.455536000000000     -3.743921000000000
C      -2.188188000000000      1.670530000000000     -3.375940000000000
C      -0.854111000000000      3.329900000000000     -2.166592000000000
C      -2.112462000000000      2.847006000000000     -2.630574000000000
C      -0.159717000000000      4.072585000000000      0.082960000000000
C      -0.527916000000000      3.805767000000000      1.435360000000000
C      -1.108424000000000      4.037020000000000     -0.900963000000000
C      -1.859553000000000      3.578212000000000      1.786918000000000
C      -1.179830000000000      1.697602000000000      3.225811000000000
C      -1.331680000000000      0.275819000000000      3.314825000000000
C      -2.190324000000000      2.497562000000000      2.703645000000000
C      -2.453760000000000     -1.683373000000000      2.151006000000000
C      -2.461807000000000     -0.319760000000000      2.835725000000000
C      -3.383322000000000     -2.063116000000000     -0.161076000000000
C      -3.503961000000000     -1.498317000000000      1.074317000000000
C      -2.998520000000000     -1.633156000000000     -2.417779000000000
C      -2.698695000000000     -0.607568000000000     -3.323776000000000
C      -3.252300000000000      0.713989000000000     -3.128639000000000
C      -3.881456000000000     -1.366912000000000     -1.310859000000000
C      -4.165454000000000      0.948385000000000     -2.108717000000000
C      -4.497328000000000     -0.118026000000000     -1.184126000000000
C      -3.130319000000000      3.134593000000000     -1.630986000000000
C      -2.500943000000000      3.863476000000000     -0.560011000000000
C      -2.875321000000000      3.623052000000000      0.769098000000000
C      -4.118433000000000      2.189882000000000     -1.356848000000000
C      -3.404606000000000      1.882189000000000      2.247787000000000
C      -3.520533000000000      0.489395000000000      2.305764000000000
C      -4.154133000000000     -0.231061000000000      1.229325000000000
C      -4.654722000000000      0.459556000000000      0.121990000000000
C      -3.850989000000000      2.592222000000000      1.059799000000000
C      -4.458334000000000      1.892637000000000      0.021409000000000
Cl      5.620092000000000     -0.020447000000000     -0.808039000000000
Cl      4.850861000000000     -1.551448000000000      1.804615000000000
Cl      3.781980000000000     -3.825141000000000     -0.188790000000000
Cl      0.880245000000000     -4.747102000000000     -2.261062000000000
Cl      4.665134000000000      2.763762000000000      0.067054000000000
Cl      2.275052000000000      5.206985000000000     -0.385182000000000
Cl     -2.636752000000000     -4.745106000000000     -0.342849000000000
Cl     -2.889870000000000     -3.043602000000000      3.319624000000000
Cl      0.528566000000000     -1.134237000000000      4.852212000000000
